
---------- Begin Simulation Statistics ----------
sim_seconds                                  0.158420                       # Number of seconds simulated
sim_ticks                                158419769000                       # Number of ticks simulated
final_tick                               158419769000                       # Number of ticks from beginning of simulation (restored from checkpoints and never reset)
sim_freq                                 1000000000000                       # Frequency of simulated ticks
host_inst_rate                                1174995                       # Simulator instruction rate (inst/s)
host_op_rate                                  1326758                       # Simulator op (including micro ops) rate (op/s)
host_tick_rate                              663420539                       # Simulator tick rate (ticks/s)
host_mem_usage                                 668500                       # Number of bytes of host memory used
host_seconds                                   238.79                       # Real time elapsed on the host
sim_insts                                   280579779                       # Number of instructions simulated
sim_ops                                     316819796                       # Number of ops (including micro ops) simulated
system.voltage_domain.voltage                       1                       # Voltage in Volts
system.clk_domain.clock                          1000                       # Clock period in ticks
system.mem_ctrls.pwrStateResidencyTicks::UNDEFINED 158419769000                       # Cumulative time (in ticks) in various power states
system.mem_ctrls.bytes_read::cpu.inst       101218240                       # Number of bytes read from this memory
system.mem_ctrls.bytes_read::cpu.data        18345984                       # Number of bytes read from this memory
system.mem_ctrls.bytes_read::total          119564224                       # Number of bytes read from this memory
system.mem_ctrls.bytes_inst_read::cpu.inst    101218240                       # Number of instructions bytes read from this memory
system.mem_ctrls.bytes_inst_read::total     101218240                       # Number of instructions bytes read from this memory
system.mem_ctrls.bytes_written::writebacks      2766400                       # Number of bytes written to this memory
system.mem_ctrls.bytes_written::total         2766400                       # Number of bytes written to this memory
system.mem_ctrls.num_reads::cpu.inst          3163070                       # Number of read requests responded to by this memory
system.mem_ctrls.num_reads::cpu.data           573312                       # Number of read requests responded to by this memory
system.mem_ctrls.num_reads::total             3736382                       # Number of read requests responded to by this memory
system.mem_ctrls.num_writes::writebacks         86450                       # Number of write requests responded to by this memory
system.mem_ctrls.num_writes::total              86450                       # Number of write requests responded to by this memory
system.mem_ctrls.bw_read::cpu.inst          638924300                       # Total read bandwidth from this memory (bytes/s)
system.mem_ctrls.bw_read::cpu.data          115806153                       # Total read bandwidth from this memory (bytes/s)
system.mem_ctrls.bw_read::total             754730453                       # Total read bandwidth from this memory (bytes/s)
system.mem_ctrls.bw_inst_read::cpu.inst     638924300                       # Instruction read bandwidth from this memory (bytes/s)
system.mem_ctrls.bw_inst_read::total        638924300                       # Instruction read bandwidth from this memory (bytes/s)
system.mem_ctrls.bw_write::writebacks        17462467                       # Write bandwidth from this memory (bytes/s)
system.mem_ctrls.bw_write::total             17462467                       # Write bandwidth from this memory (bytes/s)
system.mem_ctrls.bw_total::writebacks        17462467                       # Total bandwidth to/from this memory (bytes/s)
system.mem_ctrls.bw_total::cpu.inst         638924300                       # Total bandwidth to/from this memory (bytes/s)
system.mem_ctrls.bw_total::cpu.data         115806153                       # Total bandwidth to/from this memory (bytes/s)
system.mem_ctrls.bw_total::total            772192920                       # Total bandwidth to/from this memory (bytes/s)
system.mem_ctrls.readReqs                           0                       # Number of read requests accepted
system.mem_ctrls.writeReqs                          0                       # Number of write requests accepted
system.mem_ctrls.readBursts                         0                       # Number of DRAM read bursts, including those serviced by the write queue
system.mem_ctrls.writeBursts                        0                       # Number of DRAM write bursts, including those merged in the write queue
system.mem_ctrls.bytesReadDRAM                      0                       # Total number of bytes read from DRAM
system.mem_ctrls.bytesReadWrQ                       0                       # Total number of bytes read from write queue
system.mem_ctrls.bytesWritten                       0                       # Total number of bytes written to DRAM
system.mem_ctrls.bytesReadSys                       0                       # Total read bytes from the system interface side
system.mem_ctrls.bytesWrittenSys                    0                       # Total written bytes from the system interface side
system.mem_ctrls.servicedByWrQ                      0                       # Number of DRAM read bursts serviced by the write queue
system.mem_ctrls.mergedWrBursts                     0                       # Number of DRAM write bursts merged with an existing one
system.mem_ctrls.neitherReadNorWriteReqs            0                       # Number of requests that are neither read nor write
system.mem_ctrls.perBankRdBursts::0                 0                       # Per bank write bursts
system.mem_ctrls.perBankRdBursts::1                 0                       # Per bank write bursts
system.mem_ctrls.perBankRdBursts::2                 0                       # Per bank write bursts
system.mem_ctrls.perBankRdBursts::3                 0                       # Per bank write bursts
system.mem_ctrls.perBankRdBursts::4                 0                       # Per bank write bursts
system.mem_ctrls.perBankRdBursts::5                 0                       # Per bank write bursts
system.mem_ctrls.perBankRdBursts::6                 0                       # Per bank write bursts
system.mem_ctrls.perBankRdBursts::7                 0                       # Per bank write bursts
system.mem_ctrls.perBankRdBursts::8                 0                       # Per bank write bursts
system.mem_ctrls.perBankRdBursts::9                 0                       # Per bank write bursts
system.mem_ctrls.perBankRdBursts::10                0                       # Per bank write bursts
system.mem_ctrls.perBankRdBursts::11                0                       # Per bank write bursts
system.mem_ctrls.perBankRdBursts::12                0                       # Per bank write bursts
system.mem_ctrls.perBankRdBursts::13                0                       # Per bank write bursts
system.mem_ctrls.perBankRdBursts::14                0                       # Per bank write bursts
system.mem_ctrls.perBankRdBursts::15                0                       # Per bank write bursts
system.mem_ctrls.perBankWrBursts::0                 0                       # Per bank write bursts
system.mem_ctrls.perBankWrBursts::1                 0                       # Per bank write bursts
system.mem_ctrls.perBankWrBursts::2                 0                       # Per bank write bursts
system.mem_ctrls.perBankWrBursts::3                 0                       # Per bank write bursts
system.mem_ctrls.perBankWrBursts::4                 0                       # Per bank write bursts
system.mem_ctrls.perBankWrBursts::5                 0                       # Per bank write bursts
system.mem_ctrls.perBankWrBursts::6                 0                       # Per bank write bursts
system.mem_ctrls.perBankWrBursts::7                 0                       # Per bank write bursts
system.mem_ctrls.perBankWrBursts::8                 0                       # Per bank write bursts
system.mem_ctrls.perBankWrBursts::9                 0                       # Per bank write bursts
system.mem_ctrls.perBankWrBursts::10                0                       # Per bank write bursts
system.mem_ctrls.perBankWrBursts::11                0                       # Per bank write bursts
system.mem_ctrls.perBankWrBursts::12                0                       # Per bank write bursts
system.mem_ctrls.perBankWrBursts::13                0                       # Per bank write bursts
system.mem_ctrls.perBankWrBursts::14                0                       # Per bank write bursts
system.mem_ctrls.perBankWrBursts::15                0                       # Per bank write bursts
system.mem_ctrls.numRdRetry                         0                       # Number of times read queue was full causing retry
system.mem_ctrls.numWrRetry                         0                       # Number of times write queue was full causing retry
system.mem_ctrls.totGap                             0                       # Total gap between requests
system.mem_ctrls.readPktSize::0                     0                       # Read request sizes (log2)
system.mem_ctrls.readPktSize::1                     0                       # Read request sizes (log2)
system.mem_ctrls.readPktSize::2                     0                       # Read request sizes (log2)
system.mem_ctrls.readPktSize::3                     0                       # Read request sizes (log2)
system.mem_ctrls.readPktSize::4                     0                       # Read request sizes (log2)
system.mem_ctrls.readPktSize::5                     0                       # Read request sizes (log2)
system.mem_ctrls.readPktSize::6                     0                       # Read request sizes (log2)
system.mem_ctrls.writePktSize::0                    0                       # Write request sizes (log2)
system.mem_ctrls.writePktSize::1                    0                       # Write request sizes (log2)
system.mem_ctrls.writePktSize::2                    0                       # Write request sizes (log2)
system.mem_ctrls.writePktSize::3                    0                       # Write request sizes (log2)
system.mem_ctrls.writePktSize::4                    0                       # Write request sizes (log2)
system.mem_ctrls.writePktSize::5                    0                       # Write request sizes (log2)
system.mem_ctrls.writePktSize::6                    0                       # Write request sizes (log2)
system.mem_ctrls.rdQLenPdf::0                       0                       # What read queue length does an incoming req see
system.mem_ctrls.rdQLenPdf::1                       0                       # What read queue length does an incoming req see
system.mem_ctrls.rdQLenPdf::2                       0                       # What read queue length does an incoming req see
system.mem_ctrls.rdQLenPdf::3                       0                       # What read queue length does an incoming req see
system.mem_ctrls.rdQLenPdf::4                       0                       # What read queue length does an incoming req see
system.mem_ctrls.rdQLenPdf::5                       0                       # What read queue length does an incoming req see
system.mem_ctrls.rdQLenPdf::6                       0                       # What read queue length does an incoming req see
system.mem_ctrls.rdQLenPdf::7                       0                       # What read queue length does an incoming req see
system.mem_ctrls.rdQLenPdf::8                       0                       # What read queue length does an incoming req see
system.mem_ctrls.rdQLenPdf::9                       0                       # What read queue length does an incoming req see
system.mem_ctrls.rdQLenPdf::10                      0                       # What read queue length does an incoming req see
system.mem_ctrls.rdQLenPdf::11                      0                       # What read queue length does an incoming req see
system.mem_ctrls.rdQLenPdf::12                      0                       # What read queue length does an incoming req see
system.mem_ctrls.rdQLenPdf::13                      0                       # What read queue length does an incoming req see
system.mem_ctrls.rdQLenPdf::14                      0                       # What read queue length does an incoming req see
system.mem_ctrls.rdQLenPdf::15                      0                       # What read queue length does an incoming req see
system.mem_ctrls.rdQLenPdf::16                      0                       # What read queue length does an incoming req see
system.mem_ctrls.rdQLenPdf::17                      0                       # What read queue length does an incoming req see
system.mem_ctrls.rdQLenPdf::18                      0                       # What read queue length does an incoming req see
system.mem_ctrls.rdQLenPdf::19                      0                       # What read queue length does an incoming req see
system.mem_ctrls.rdQLenPdf::20                      0                       # What read queue length does an incoming req see
system.mem_ctrls.rdQLenPdf::21                      0                       # What read queue length does an incoming req see
system.mem_ctrls.rdQLenPdf::22                      0                       # What read queue length does an incoming req see
system.mem_ctrls.rdQLenPdf::23                      0                       # What read queue length does an incoming req see
system.mem_ctrls.rdQLenPdf::24                      0                       # What read queue length does an incoming req see
system.mem_ctrls.rdQLenPdf::25                      0                       # What read queue length does an incoming req see
system.mem_ctrls.rdQLenPdf::26                      0                       # What read queue length does an incoming req see
system.mem_ctrls.rdQLenPdf::27                      0                       # What read queue length does an incoming req see
system.mem_ctrls.rdQLenPdf::28                      0                       # What read queue length does an incoming req see
system.mem_ctrls.rdQLenPdf::29                      0                       # What read queue length does an incoming req see
system.mem_ctrls.rdQLenPdf::30                      0                       # What read queue length does an incoming req see
system.mem_ctrls.rdQLenPdf::31                      0                       # What read queue length does an incoming req see
system.mem_ctrls.wrQLenPdf::0                       0                       # What write queue length does an incoming req see
system.mem_ctrls.wrQLenPdf::1                       0                       # What write queue length does an incoming req see
system.mem_ctrls.wrQLenPdf::2                       0                       # What write queue length does an incoming req see
system.mem_ctrls.wrQLenPdf::3                       0                       # What write queue length does an incoming req see
system.mem_ctrls.wrQLenPdf::4                       0                       # What write queue length does an incoming req see
system.mem_ctrls.wrQLenPdf::5                       0                       # What write queue length does an incoming req see
system.mem_ctrls.wrQLenPdf::6                       0                       # What write queue length does an incoming req see
system.mem_ctrls.wrQLenPdf::7                       0                       # What write queue length does an incoming req see
system.mem_ctrls.wrQLenPdf::8                       0                       # What write queue length does an incoming req see
system.mem_ctrls.wrQLenPdf::9                       0                       # What write queue length does an incoming req see
system.mem_ctrls.wrQLenPdf::10                      0                       # What write queue length does an incoming req see
system.mem_ctrls.wrQLenPdf::11                      0                       # What write queue length does an incoming req see
system.mem_ctrls.wrQLenPdf::12                      0                       # What write queue length does an incoming req see
system.mem_ctrls.wrQLenPdf::13                      0                       # What write queue length does an incoming req see
system.mem_ctrls.wrQLenPdf::14                      0                       # What write queue length does an incoming req see
system.mem_ctrls.wrQLenPdf::15                      0                       # What write queue length does an incoming req see
system.mem_ctrls.wrQLenPdf::16                      0                       # What write queue length does an incoming req see
system.mem_ctrls.wrQLenPdf::17                      0                       # What write queue length does an incoming req see
system.mem_ctrls.wrQLenPdf::18                      0                       # What write queue length does an incoming req see
system.mem_ctrls.wrQLenPdf::19                      0                       # What write queue length does an incoming req see
system.mem_ctrls.wrQLenPdf::20                      0                       # What write queue length does an incoming req see
system.mem_ctrls.wrQLenPdf::21                      0                       # What write queue length does an incoming req see
system.mem_ctrls.wrQLenPdf::22                      0                       # What write queue length does an incoming req see
system.mem_ctrls.wrQLenPdf::23                      0                       # What write queue length does an incoming req see
system.mem_ctrls.wrQLenPdf::24                      0                       # What write queue length does an incoming req see
system.mem_ctrls.wrQLenPdf::25                      0                       # What write queue length does an incoming req see
system.mem_ctrls.wrQLenPdf::26                      0                       # What write queue length does an incoming req see
system.mem_ctrls.wrQLenPdf::27                      0                       # What write queue length does an incoming req see
system.mem_ctrls.wrQLenPdf::28                      0                       # What write queue length does an incoming req see
system.mem_ctrls.wrQLenPdf::29                      0                       # What write queue length does an incoming req see
system.mem_ctrls.wrQLenPdf::30                      0                       # What write queue length does an incoming req see
system.mem_ctrls.wrQLenPdf::31                      0                       # What write queue length does an incoming req see
system.mem_ctrls.wrQLenPdf::32                      0                       # What write queue length does an incoming req see
system.mem_ctrls.wrQLenPdf::33                      0                       # What write queue length does an incoming req see
system.mem_ctrls.wrQLenPdf::34                      0                       # What write queue length does an incoming req see
system.mem_ctrls.wrQLenPdf::35                      0                       # What write queue length does an incoming req see
system.mem_ctrls.wrQLenPdf::36                      0                       # What write queue length does an incoming req see
system.mem_ctrls.wrQLenPdf::37                      0                       # What write queue length does an incoming req see
system.mem_ctrls.wrQLenPdf::38                      0                       # What write queue length does an incoming req see
system.mem_ctrls.wrQLenPdf::39                      0                       # What write queue length does an incoming req see
system.mem_ctrls.wrQLenPdf::40                      0                       # What write queue length does an incoming req see
system.mem_ctrls.wrQLenPdf::41                      0                       # What write queue length does an incoming req see
system.mem_ctrls.wrQLenPdf::42                      0                       # What write queue length does an incoming req see
system.mem_ctrls.wrQLenPdf::43                      0                       # What write queue length does an incoming req see
system.mem_ctrls.wrQLenPdf::44                      0                       # What write queue length does an incoming req see
system.mem_ctrls.wrQLenPdf::45                      0                       # What write queue length does an incoming req see
system.mem_ctrls.wrQLenPdf::46                      0                       # What write queue length does an incoming req see
system.mem_ctrls.wrQLenPdf::47                      0                       # What write queue length does an incoming req see
system.mem_ctrls.wrQLenPdf::48                      0                       # What write queue length does an incoming req see
system.mem_ctrls.wrQLenPdf::49                      0                       # What write queue length does an incoming req see
system.mem_ctrls.wrQLenPdf::50                      0                       # What write queue length does an incoming req see
system.mem_ctrls.wrQLenPdf::51                      0                       # What write queue length does an incoming req see
system.mem_ctrls.wrQLenPdf::52                      0                       # What write queue length does an incoming req see
system.mem_ctrls.wrQLenPdf::53                      0                       # What write queue length does an incoming req see
system.mem_ctrls.wrQLenPdf::54                      0                       # What write queue length does an incoming req see
system.mem_ctrls.wrQLenPdf::55                      0                       # What write queue length does an incoming req see
system.mem_ctrls.wrQLenPdf::56                      0                       # What write queue length does an incoming req see
system.mem_ctrls.wrQLenPdf::57                      0                       # What write queue length does an incoming req see
system.mem_ctrls.wrQLenPdf::58                      0                       # What write queue length does an incoming req see
system.mem_ctrls.wrQLenPdf::59                      0                       # What write queue length does an incoming req see
system.mem_ctrls.wrQLenPdf::60                      0                       # What write queue length does an incoming req see
system.mem_ctrls.wrQLenPdf::61                      0                       # What write queue length does an incoming req see
system.mem_ctrls.wrQLenPdf::62                      0                       # What write queue length does an incoming req see
system.mem_ctrls.wrQLenPdf::63                      0                       # What write queue length does an incoming req see
system.mem_ctrls.totQLat                            0                       # Total ticks spent queuing
system.mem_ctrls.totMemAccLat                       0                       # Total ticks spent from burst creation until serviced by the DRAM
system.mem_ctrls.totBusLat                          0                       # Total ticks spent in databus transfers
system.mem_ctrls.avgQLat                          nan                       # Average queueing delay per DRAM burst
system.mem_ctrls.avgBusLat                        nan                       # Average bus latency per DRAM burst
system.mem_ctrls.avgMemAccLat                     nan                       # Average memory access latency per DRAM burst
system.mem_ctrls.avgRdBW                         0.00                       # Average DRAM read bandwidth in MiByte/s
system.mem_ctrls.avgWrBW                         0.00                       # Average achieved write bandwidth in MiByte/s
system.mem_ctrls.avgRdBWSys                      0.00                       # Average system read bandwidth in MiByte/s
system.mem_ctrls.avgWrBWSys                      0.00                       # Average system write bandwidth in MiByte/s
system.mem_ctrls.peakBW                      12800.00                       # Theoretical peak bandwidth in MiByte/s
system.mem_ctrls.busUtil                         0.00                       # Data bus utilization in percentage
system.mem_ctrls.busUtilRead                     0.00                       # Data bus utilization in percentage for reads
system.mem_ctrls.busUtilWrite                    0.00                       # Data bus utilization in percentage for writes
system.mem_ctrls.avgRdQLen                       0.00                       # Average read queue length when enqueuing
system.mem_ctrls.avgWrQLen                       0.00                       # Average write queue length when enqueuing
system.mem_ctrls.readRowHits                        0                       # Number of row buffer hits during reads
system.mem_ctrls.writeRowHits                       0                       # Number of row buffer hits during writes
system.mem_ctrls.readRowHitRate                   nan                       # Row buffer hit rate for reads
system.mem_ctrls.writeRowHitRate                  nan                       # Row buffer hit rate for writes
system.mem_ctrls.avgGap                           nan                       # Average gap between requests
system.mem_ctrls.pageHitRate                      nan                       # Row buffer hit rate, read and write combined
system.mem_ctrls_0.actEnergy                        0                       # Energy for activate commands per rank (pJ)
system.mem_ctrls_0.preEnergy                        0                       # Energy for precharge commands per rank (pJ)
system.mem_ctrls_0.readEnergy                       0                       # Energy for read commands per rank (pJ)
system.mem_ctrls_0.writeEnergy                      0                       # Energy for write commands per rank (pJ)
system.mem_ctrls_0.refreshEnergy                    0                       # Energy for refresh commands per rank (pJ)
system.mem_ctrls_0.actBackEnergy                    0                       # Energy for active background per rank (pJ)
system.mem_ctrls_0.preBackEnergy          60833191680                       # Energy for precharge background per rank (pJ)
system.mem_ctrls_0.actPowerDownEnergy               0                       # Energy for active power-down per rank (pJ)
system.mem_ctrls_0.prePowerDownEnergy               0                       # Energy for precharge power-down per rank (pJ)
system.mem_ctrls_0.selfRefreshEnergy                0                       # Energy for self refresh per rank (pJ)
system.mem_ctrls_0.totalEnergy            60833191680                       # Total energy per rank (pJ)
system.mem_ctrls_0.averagePower            384.000002                       # Core power per rank (mW)
system.mem_ctrls_0.totalIdleTime                    0                       # Total Idle time Per DRAM Rank
system.mem_ctrls_0.memoryStateTime::IDLE 158419769000                       # Time in different power states
system.mem_ctrls_0.memoryStateTime::REF             0                       # Time in different power states
system.mem_ctrls_0.memoryStateTime::SREF            0                       # Time in different power states
system.mem_ctrls_0.memoryStateTime::PRE_PDN            0                       # Time in different power states
system.mem_ctrls_0.memoryStateTime::ACT             0                       # Time in different power states
system.mem_ctrls_0.memoryStateTime::ACT_PDN            0                       # Time in different power states
system.mem_ctrls_1.actEnergy                        0                       # Energy for activate commands per rank (pJ)
system.mem_ctrls_1.preEnergy                        0                       # Energy for precharge commands per rank (pJ)
system.mem_ctrls_1.readEnergy                       0                       # Energy for read commands per rank (pJ)
system.mem_ctrls_1.writeEnergy                      0                       # Energy for write commands per rank (pJ)
system.mem_ctrls_1.refreshEnergy                    0                       # Energy for refresh commands per rank (pJ)
system.mem_ctrls_1.actBackEnergy                    0                       # Energy for active background per rank (pJ)
system.mem_ctrls_1.preBackEnergy          60833191680                       # Energy for precharge background per rank (pJ)
system.mem_ctrls_1.actPowerDownEnergy               0                       # Energy for active power-down per rank (pJ)
system.mem_ctrls_1.prePowerDownEnergy               0                       # Energy for precharge power-down per rank (pJ)
system.mem_ctrls_1.selfRefreshEnergy                0                       # Energy for self refresh per rank (pJ)
system.mem_ctrls_1.totalEnergy            60833191680                       # Total energy per rank (pJ)
system.mem_ctrls_1.averagePower            384.000002                       # Core power per rank (mW)
system.mem_ctrls_1.totalIdleTime                    0                       # Total Idle time Per DRAM Rank
system.mem_ctrls_1.memoryStateTime::IDLE 158419769000                       # Time in different power states
system.mem_ctrls_1.memoryStateTime::REF             0                       # Time in different power states
system.mem_ctrls_1.memoryStateTime::SREF            0                       # Time in different power states
system.mem_ctrls_1.memoryStateTime::PRE_PDN            0                       # Time in different power states
system.mem_ctrls_1.memoryStateTime::ACT             0                       # Time in different power states
system.mem_ctrls_1.memoryStateTime::ACT_PDN            0                       # Time in different power states
system.pwrStateResidencyTicks::UNDEFINED 158419769000                       # Cumulative time (in ticks) in various power states
system.cpu_voltage_domain.voltage                   1                       # Voltage in Volts
system.cpu_clk_domain.clock                       500                       # Clock period in ticks
system.cpu.dstage2_mmu.stage2_tlb.walker.pwrStateResidencyTicks::UNDEFINED 158419769000                       # Cumulative time (in ticks) in various power states
system.cpu.dstage2_mmu.stage2_tlb.walker.walks            0                       # Table walker walks requested
system.cpu.dstage2_mmu.stage2_tlb.walker.walkRequestOrigin_Requested::Data            0                       # Table walker requests started/completed, data/inst
system.cpu.dstage2_mmu.stage2_tlb.walker.walkRequestOrigin_Requested::Inst            0                       # Table walker requests started/completed, data/inst
system.cpu.dstage2_mmu.stage2_tlb.walker.walkRequestOrigin_Requested::total            0                       # Table walker requests started/completed, data/inst
system.cpu.dstage2_mmu.stage2_tlb.walker.walkRequestOrigin_Completed::Data            0                       # Table walker requests started/completed, data/inst
system.cpu.dstage2_mmu.stage2_tlb.walker.walkRequestOrigin_Completed::Inst            0                       # Table walker requests started/completed, data/inst
system.cpu.dstage2_mmu.stage2_tlb.walker.walkRequestOrigin_Completed::total            0                       # Table walker requests started/completed, data/inst
system.cpu.dstage2_mmu.stage2_tlb.walker.walkRequestOrigin::total            0                       # Table walker requests started/completed, data/inst
system.cpu.dstage2_mmu.stage2_tlb.inst_hits            0                       # ITB inst hits
system.cpu.dstage2_mmu.stage2_tlb.inst_misses            0                       # ITB inst misses
system.cpu.dstage2_mmu.stage2_tlb.read_hits            0                       # DTB read hits
system.cpu.dstage2_mmu.stage2_tlb.read_misses            0                       # DTB read misses
system.cpu.dstage2_mmu.stage2_tlb.write_hits            0                       # DTB write hits
system.cpu.dstage2_mmu.stage2_tlb.write_misses            0                       # DTB write misses
system.cpu.dstage2_mmu.stage2_tlb.flush_tlb            0                       # Number of times complete TLB was flushed
system.cpu.dstage2_mmu.stage2_tlb.flush_tlb_mva            0                       # Number of times TLB was flushed by MVA
system.cpu.dstage2_mmu.stage2_tlb.flush_tlb_mva_asid            0                       # Number of times TLB was flushed by MVA & ASID
system.cpu.dstage2_mmu.stage2_tlb.flush_tlb_asid            0                       # Number of times TLB was flushed by ASID
system.cpu.dstage2_mmu.stage2_tlb.flush_entries            0                       # Number of entries that have been flushed from TLB
system.cpu.dstage2_mmu.stage2_tlb.align_faults            0                       # Number of TLB faults due to alignment restrictions
system.cpu.dstage2_mmu.stage2_tlb.prefetch_faults            0                       # Number of TLB faults due to prefetch
system.cpu.dstage2_mmu.stage2_tlb.domain_faults            0                       # Number of TLB faults due to domain restrictions
system.cpu.dstage2_mmu.stage2_tlb.perms_faults            0                       # Number of TLB faults due to permissions restrictions
system.cpu.dstage2_mmu.stage2_tlb.read_accesses            0                       # DTB read accesses
system.cpu.dstage2_mmu.stage2_tlb.write_accesses            0                       # DTB write accesses
system.cpu.dstage2_mmu.stage2_tlb.inst_accesses            0                       # ITB inst accesses
system.cpu.dstage2_mmu.stage2_tlb.hits              0                       # DTB hits
system.cpu.dstage2_mmu.stage2_tlb.misses            0                       # DTB misses
system.cpu.dstage2_mmu.stage2_tlb.accesses            0                       # DTB accesses
system.cpu.dtb.walker.pwrStateResidencyTicks::UNDEFINED 158419769000                       # Cumulative time (in ticks) in various power states
system.cpu.dtb.walker.walks                         0                       # Table walker walks requested
system.cpu.dtb.walker.walkRequestOrigin_Requested::Data            0                       # Table walker requests started/completed, data/inst
system.cpu.dtb.walker.walkRequestOrigin_Requested::Inst            0                       # Table walker requests started/completed, data/inst
system.cpu.dtb.walker.walkRequestOrigin_Requested::total            0                       # Table walker requests started/completed, data/inst
system.cpu.dtb.walker.walkRequestOrigin_Completed::Data            0                       # Table walker requests started/completed, data/inst
system.cpu.dtb.walker.walkRequestOrigin_Completed::Inst            0                       # Table walker requests started/completed, data/inst
system.cpu.dtb.walker.walkRequestOrigin_Completed::total            0                       # Table walker requests started/completed, data/inst
system.cpu.dtb.walker.walkRequestOrigin::total            0                       # Table walker requests started/completed, data/inst
system.cpu.dtb.inst_hits                            0                       # ITB inst hits
system.cpu.dtb.inst_misses                          0                       # ITB inst misses
system.cpu.dtb.read_hits                            0                       # DTB read hits
system.cpu.dtb.read_misses                          0                       # DTB read misses
system.cpu.dtb.write_hits                           0                       # DTB write hits
system.cpu.dtb.write_misses                         0                       # DTB write misses
system.cpu.dtb.flush_tlb                            0                       # Number of times complete TLB was flushed
system.cpu.dtb.flush_tlb_mva                        0                       # Number of times TLB was flushed by MVA
system.cpu.dtb.flush_tlb_mva_asid                   0                       # Number of times TLB was flushed by MVA & ASID
system.cpu.dtb.flush_tlb_asid                       0                       # Number of times TLB was flushed by ASID
system.cpu.dtb.flush_entries                        0                       # Number of entries that have been flushed from TLB
system.cpu.dtb.align_faults                         0                       # Number of TLB faults due to alignment restrictions
system.cpu.dtb.prefetch_faults                      0                       # Number of TLB faults due to prefetch
system.cpu.dtb.domain_faults                        0                       # Number of TLB faults due to domain restrictions
system.cpu.dtb.perms_faults                         0                       # Number of TLB faults due to permissions restrictions
system.cpu.dtb.read_accesses                        0                       # DTB read accesses
system.cpu.dtb.write_accesses                       0                       # DTB write accesses
system.cpu.dtb.inst_accesses                        0                       # ITB inst accesses
system.cpu.dtb.hits                                 0                       # DTB hits
system.cpu.dtb.misses                               0                       # DTB misses
system.cpu.dtb.accesses                             0                       # DTB accesses
system.cpu.istage2_mmu.stage2_tlb.walker.pwrStateResidencyTicks::UNDEFINED 158419769000                       # Cumulative time (in ticks) in various power states
system.cpu.istage2_mmu.stage2_tlb.walker.walks            0                       # Table walker walks requested
system.cpu.istage2_mmu.stage2_tlb.walker.walkRequestOrigin_Requested::Data            0                       # Table walker requests started/completed, data/inst
system.cpu.istage2_mmu.stage2_tlb.walker.walkRequestOrigin_Requested::Inst            0                       # Table walker requests started/completed, data/inst
system.cpu.istage2_mmu.stage2_tlb.walker.walkRequestOrigin_Requested::total            0                       # Table walker requests started/completed, data/inst
system.cpu.istage2_mmu.stage2_tlb.walker.walkRequestOrigin_Completed::Data            0                       # Table walker requests started/completed, data/inst
system.cpu.istage2_mmu.stage2_tlb.walker.walkRequestOrigin_Completed::Inst            0                       # Table walker requests started/completed, data/inst
system.cpu.istage2_mmu.stage2_tlb.walker.walkRequestOrigin_Completed::total            0                       # Table walker requests started/completed, data/inst
system.cpu.istage2_mmu.stage2_tlb.walker.walkRequestOrigin::total            0                       # Table walker requests started/completed, data/inst
system.cpu.istage2_mmu.stage2_tlb.inst_hits            0                       # ITB inst hits
system.cpu.istage2_mmu.stage2_tlb.inst_misses            0                       # ITB inst misses
system.cpu.istage2_mmu.stage2_tlb.read_hits            0                       # DTB read hits
system.cpu.istage2_mmu.stage2_tlb.read_misses            0                       # DTB read misses
system.cpu.istage2_mmu.stage2_tlb.write_hits            0                       # DTB write hits
system.cpu.istage2_mmu.stage2_tlb.write_misses            0                       # DTB write misses
system.cpu.istage2_mmu.stage2_tlb.flush_tlb            0                       # Number of times complete TLB was flushed
system.cpu.istage2_mmu.stage2_tlb.flush_tlb_mva            0                       # Number of times TLB was flushed by MVA
system.cpu.istage2_mmu.stage2_tlb.flush_tlb_mva_asid            0                       # Number of times TLB was flushed by MVA & ASID
system.cpu.istage2_mmu.stage2_tlb.flush_tlb_asid            0                       # Number of times TLB was flushed by ASID
system.cpu.istage2_mmu.stage2_tlb.flush_entries            0                       # Number of entries that have been flushed from TLB
system.cpu.istage2_mmu.stage2_tlb.align_faults            0                       # Number of TLB faults due to alignment restrictions
system.cpu.istage2_mmu.stage2_tlb.prefetch_faults            0                       # Number of TLB faults due to prefetch
system.cpu.istage2_mmu.stage2_tlb.domain_faults            0                       # Number of TLB faults due to domain restrictions
system.cpu.istage2_mmu.stage2_tlb.perms_faults            0                       # Number of TLB faults due to permissions restrictions
system.cpu.istage2_mmu.stage2_tlb.read_accesses            0                       # DTB read accesses
system.cpu.istage2_mmu.stage2_tlb.write_accesses            0                       # DTB write accesses
system.cpu.istage2_mmu.stage2_tlb.inst_accesses            0                       # ITB inst accesses
system.cpu.istage2_mmu.stage2_tlb.hits              0                       # DTB hits
system.cpu.istage2_mmu.stage2_tlb.misses            0                       # DTB misses
system.cpu.istage2_mmu.stage2_tlb.accesses            0                       # DTB accesses
system.cpu.itb.walker.pwrStateResidencyTicks::UNDEFINED 158419769000                       # Cumulative time (in ticks) in various power states
system.cpu.itb.walker.walks                         0                       # Table walker walks requested
system.cpu.itb.walker.walkRequestOrigin_Requested::Data            0                       # Table walker requests started/completed, data/inst
system.cpu.itb.walker.walkRequestOrigin_Requested::Inst            0                       # Table walker requests started/completed, data/inst
system.cpu.itb.walker.walkRequestOrigin_Requested::total            0                       # Table walker requests started/completed, data/inst
system.cpu.itb.walker.walkRequestOrigin_Completed::Data            0                       # Table walker requests started/completed, data/inst
system.cpu.itb.walker.walkRequestOrigin_Completed::Inst            0                       # Table walker requests started/completed, data/inst
system.cpu.itb.walker.walkRequestOrigin_Completed::total            0                       # Table walker requests started/completed, data/inst
system.cpu.itb.walker.walkRequestOrigin::total            0                       # Table walker requests started/completed, data/inst
system.cpu.itb.inst_hits                            0                       # ITB inst hits
system.cpu.itb.inst_misses                          0                       # ITB inst misses
system.cpu.itb.read_hits                            0                       # DTB read hits
system.cpu.itb.read_misses                          0                       # DTB read misses
system.cpu.itb.write_hits                           0                       # DTB write hits
system.cpu.itb.write_misses                         0                       # DTB write misses
system.cpu.itb.flush_tlb                            0                       # Number of times complete TLB was flushed
system.cpu.itb.flush_tlb_mva                        0                       # Number of times TLB was flushed by MVA
system.cpu.itb.flush_tlb_mva_asid                   0                       # Number of times TLB was flushed by MVA & ASID
system.cpu.itb.flush_tlb_asid                       0                       # Number of times TLB was flushed by ASID
system.cpu.itb.flush_entries                        0                       # Number of entries that have been flushed from TLB
system.cpu.itb.align_faults                         0                       # Number of TLB faults due to alignment restrictions
system.cpu.itb.prefetch_faults                      0                       # Number of TLB faults due to prefetch
system.cpu.itb.domain_faults                        0                       # Number of TLB faults due to domain restrictions
system.cpu.itb.perms_faults                         0                       # Number of TLB faults due to permissions restrictions
system.cpu.itb.read_accesses                        0                       # DTB read accesses
system.cpu.itb.write_accesses                       0                       # DTB write accesses
system.cpu.itb.inst_accesses                        0                       # ITB inst accesses
system.cpu.itb.hits                                 0                       # DTB hits
system.cpu.itb.misses                               0                       # DTB misses
system.cpu.itb.accesses                             0                       # DTB accesses
system.cpu.workload.numSyscalls                 19743                       # Number of system calls
system.cpu.pwrStateResidencyTicks::ON    158419769000                       # Cumulative time (in ticks) in various power states
system.cpu.numCycles                        316839539                       # number of cpu cycles simulated
system.cpu.numWorkItemsStarted                      0                       # number of work items this cpu started
system.cpu.numWorkItemsCompleted                    0                       # number of work items this cpu completed
system.cpu.committedInsts                   280579779                       # Number of instructions committed
system.cpu.committedOps                     316819796                       # Number of ops (including micro ops) committed
system.cpu.num_int_alu_accesses             284795345                       # Number of integer alu accesses
system.cpu.num_fp_alu_accesses                     16                       # Number of float alu accesses
system.cpu.num_vec_alu_accesses                     0                       # Number of vector alu accesses
system.cpu.num_func_calls                    12537425                       # number of times a function call or return occured
system.cpu.num_conditional_control_insts     33436791                       # number of instructions that are conditional controls
system.cpu.num_int_insts                    284795345                       # number of integer instructions
system.cpu.num_fp_insts                            16                       # number of float instructions
system.cpu.num_vec_insts                            0                       # number of vector instructions
system.cpu.num_int_register_reads           435589688                       # number of times the integer registers were read
system.cpu.num_int_register_writes          213923027                       # number of times the integer registers were written
system.cpu.num_fp_register_reads                   16                       # number of times the floating registers were read
system.cpu.num_fp_register_writes                   0                       # number of times the floating registers were written
system.cpu.num_vec_register_reads                   0                       # number of times the vector registers were read
system.cpu.num_vec_register_writes                  0                       # number of times the vector registers were written
system.cpu.num_cc_register_reads            950643989                       # number of times the CC registers were read
system.cpu.num_cc_register_writes           203188315                       # number of times the CC registers were written
system.cpu.num_mem_refs                      46810720                       # number of memory refs
system.cpu.num_load_insts                    24374975                       # Number of load instructions
system.cpu.num_store_insts                   22435745                       # Number of store instructions
system.cpu.num_idle_cycles                          0                       # Number of idle cycles
system.cpu.num_busy_cycles                  316839539                       # Number of busy cycles
system.cpu.not_idle_fraction                        1                       # Percentage of non-idle cycles
system.cpu.idle_fraction                            0                       # Percentage of idle cycles
system.cpu.Branches                          45257093                       # Number of branches fetched
system.cpu.op_class::No_OpClass                     0      0.00%      0.00% # Class of executed instruction
system.cpu.op_class::IntAlu                 265949960     83.94%     83.94% # Class of executed instruction
system.cpu.op_class::IntMult                  3932501      1.24%     85.18% # Class of executed instruction
system.cpu.op_class::IntDiv                         0      0.00%     85.18% # Class of executed instruction
system.cpu.op_class::FloatAdd                       0      0.00%     85.18% # Class of executed instruction
system.cpu.op_class::FloatCmp                       0      0.00%     85.18% # Class of executed instruction
system.cpu.op_class::FloatCvt                       0      0.00%     85.18% # Class of executed instruction
system.cpu.op_class::FloatMult                      0      0.00%     85.18% # Class of executed instruction
system.cpu.op_class::FloatMultAcc                   0      0.00%     85.18% # Class of executed instruction
system.cpu.op_class::FloatDiv                       0      0.00%     85.18% # Class of executed instruction
system.cpu.op_class::FloatMisc                      0      0.00%     85.18% # Class of executed instruction
system.cpu.op_class::FloatSqrt                      0      0.00%     85.18% # Class of executed instruction
system.cpu.op_class::SimdAdd                        0      0.00%     85.18% # Class of executed instruction
system.cpu.op_class::SimdAddAcc                     0      0.00%     85.18% # Class of executed instruction
system.cpu.op_class::SimdAlu                        0      0.00%     85.18% # Class of executed instruction
system.cpu.op_class::SimdCmp                        0      0.00%     85.18% # Class of executed instruction
system.cpu.op_class::SimdCvt                        0      0.00%     85.18% # Class of executed instruction
system.cpu.op_class::SimdMisc                       0      0.00%     85.18% # Class of executed instruction
system.cpu.op_class::SimdMult                       0      0.00%     85.18% # Class of executed instruction
system.cpu.op_class::SimdMultAcc                    0      0.00%     85.18% # Class of executed instruction
system.cpu.op_class::SimdShift                      0      0.00%     85.18% # Class of executed instruction
system.cpu.op_class::SimdShiftAcc                   0      0.00%     85.18% # Class of executed instruction
system.cpu.op_class::SimdSqrt                       0      0.00%     85.18% # Class of executed instruction
system.cpu.op_class::SimdFloatAdd                   0      0.00%     85.18% # Class of executed instruction
system.cpu.op_class::SimdFloatAlu                   0      0.00%     85.18% # Class of executed instruction
system.cpu.op_class::SimdFloatCmp                   0      0.00%     85.18% # Class of executed instruction
system.cpu.op_class::SimdFloatCvt                   0      0.00%     85.18% # Class of executed instruction
system.cpu.op_class::SimdFloatDiv                   0      0.00%     85.18% # Class of executed instruction
system.cpu.op_class::SimdFloatMisc             146358      0.05%     85.23% # Class of executed instruction
system.cpu.op_class::SimdFloatMult                  0      0.00%     85.23% # Class of executed instruction
system.cpu.op_class::SimdFloatMultAcc               0      0.00%     85.23% # Class of executed instruction
system.cpu.op_class::SimdFloatSqrt                  0      0.00%     85.23% # Class of executed instruction
system.cpu.op_class::MemRead                 24374975      7.69%     92.92% # Class of executed instruction
system.cpu.op_class::MemWrite                22435729      7.08%    100.00% # Class of executed instruction
system.cpu.op_class::FloatMemRead                   0      0.00%    100.00% # Class of executed instruction
system.cpu.op_class::FloatMemWrite                 16      0.00%    100.00% # Class of executed instruction
system.cpu.op_class::IprAccess                      0      0.00%    100.00% # Class of executed instruction
system.cpu.op_class::InstPrefetch                   0      0.00%    100.00% # Class of executed instruction
system.cpu.op_class::total                  316839539                       # Class of executed instruction
system.cpu.dcache.tags.pwrStateResidencyTicks::UNDEFINED 158419769000                       # Cumulative time (in ticks) in various power states
system.cpu.dcache.tags.replacements           2679458                       # number of replacements
system.cpu.dcache.tags.tagsinuse            31.999991                       # Cycle average of tags in use
system.cpu.dcache.tags.total_refs        1944730875558                       # Total number of references to valid blocks.
system.cpu.dcache.tags.sampled_refs           2679490                       # Sample count of references to valid blocks.
system.cpu.dcache.tags.avg_refs          725783.964694                       # Average number of references to valid blocks.
system.cpu.dcache.tags.warmup_cycle              1000                       # Cycle when the warmup percentage was hit.
system.cpu.dcache.tags.occ_blocks::cpu.data    31.999991                       # Average occupied blocks per requestor
system.cpu.dcache.tags.occ_percent::cpu.data     1.000000                       # Average percentage of cache occupancy
system.cpu.dcache.tags.occ_percent::total     1.000000                       # Average percentage of cache occupancy
system.cpu.dcache.tags.occ_task_id_blocks::1024           32                       # Occupied blocks per task id
system.cpu.dcache.tags.age_task_id_blocks_1024::0           31                       # Occupied blocks per task id
system.cpu.dcache.tags.age_task_id_blocks_1024::3            1                       # Occupied blocks per task id
system.cpu.dcache.tags.occ_task_id_percent::1024            1                       # Percentage of cache occupancy per task id
system.cpu.dcache.tags.tag_accesses         176735666                       # Number of tag accesses
system.cpu.dcache.tags.data_accesses        176735666                       # Number of data accesses
system.cpu.dcache.pwrStateResidencyTicks::UNDEFINED 158419769000                       # Cumulative time (in ticks) in various power states
system.cpu.dcache.ReadReq_hits::cpu.data     19755236                       # number of ReadReq hits
system.cpu.dcache.ReadReq_hits::total        19755236                       # number of ReadReq hits
system.cpu.dcache.WriteReq_hits::cpu.data     20848376                       # number of WriteReq hits
system.cpu.dcache.WriteReq_hits::total       20848376                       # number of WriteReq hits
system.cpu.dcache.LoadLockedReq_hits::cpu.data       115471                       # number of LoadLockedReq hits
system.cpu.dcache.LoadLockedReq_hits::total       115471                       # number of LoadLockedReq hits
system.cpu.dcache.StoreCondReq_hits::cpu.data       115471                       # number of StoreCondReq hits
system.cpu.dcache.StoreCondReq_hits::total       115471                       # number of StoreCondReq hits
system.cpu.dcache.demand_hits::cpu.data      40603612                       # number of demand (read+write) hits
system.cpu.dcache.demand_hits::total         40603612                       # number of demand (read+write) hits
system.cpu.dcache.overall_hits::cpu.data     40603612                       # number of overall hits
system.cpu.dcache.overall_hits::total        40603612                       # number of overall hits
system.cpu.dcache.ReadReq_misses::cpu.data      2021499                       # number of ReadReq misses
system.cpu.dcache.ReadReq_misses::total       2021499                       # number of ReadReq misses
system.cpu.dcache.WriteReq_misses::cpu.data       657991                       # number of WriteReq misses
system.cpu.dcache.WriteReq_misses::total       657991                       # number of WriteReq misses
system.cpu.dcache.demand_misses::cpu.data      2679490                       # number of demand (read+write) misses
system.cpu.dcache.demand_misses::total        2679490                       # number of demand (read+write) misses
system.cpu.dcache.overall_misses::cpu.data      2679490                       # number of overall misses
system.cpu.dcache.overall_misses::total       2679490                       # number of overall misses
system.cpu.dcache.ReadReq_accesses::cpu.data     21776735                       # number of ReadReq accesses(hits+misses)
system.cpu.dcache.ReadReq_accesses::total     21776735                       # number of ReadReq accesses(hits+misses)
system.cpu.dcache.WriteReq_accesses::cpu.data     21506367                       # number of WriteReq accesses(hits+misses)
system.cpu.dcache.WriteReq_accesses::total     21506367                       # number of WriteReq accesses(hits+misses)
system.cpu.dcache.LoadLockedReq_accesses::cpu.data       115471                       # number of LoadLockedReq accesses(hits+misses)
system.cpu.dcache.LoadLockedReq_accesses::total       115471                       # number of LoadLockedReq accesses(hits+misses)
system.cpu.dcache.StoreCondReq_accesses::cpu.data       115471                       # number of StoreCondReq accesses(hits+misses)
system.cpu.dcache.StoreCondReq_accesses::total       115471                       # number of StoreCondReq accesses(hits+misses)
system.cpu.dcache.demand_accesses::cpu.data     43283102                       # number of demand (read+write) accesses
system.cpu.dcache.demand_accesses::total     43283102                       # number of demand (read+write) accesses
system.cpu.dcache.overall_accesses::cpu.data     43283102                       # number of overall (read+write) accesses
system.cpu.dcache.overall_accesses::total     43283102                       # number of overall (read+write) accesses
system.cpu.dcache.ReadReq_miss_rate::cpu.data     0.092828                       # miss rate for ReadReq accesses
system.cpu.dcache.ReadReq_miss_rate::total     0.092828                       # miss rate for ReadReq accesses
system.cpu.dcache.WriteReq_miss_rate::cpu.data     0.030595                       # miss rate for WriteReq accesses
system.cpu.dcache.WriteReq_miss_rate::total     0.030595                       # miss rate for WriteReq accesses
system.cpu.dcache.demand_miss_rate::cpu.data     0.061906                       # miss rate for demand accesses
system.cpu.dcache.demand_miss_rate::total     0.061906                       # miss rate for demand accesses
system.cpu.dcache.overall_miss_rate::cpu.data     0.061906                       # miss rate for overall accesses
system.cpu.dcache.overall_miss_rate::total     0.061906                       # miss rate for overall accesses
system.cpu.dcache.blocked_cycles::no_mshrs            0                       # number of cycles access was blocked
system.cpu.dcache.blocked_cycles::no_targets            0                       # number of cycles access was blocked
system.cpu.dcache.blocked::no_mshrs                 0                       # number of cycles access was blocked
system.cpu.dcache.blocked::no_targets               0                       # number of cycles access was blocked
system.cpu.dcache.avg_blocked_cycles::no_mshrs          nan                       # average number of cycles each access was blocked
system.cpu.dcache.avg_blocked_cycles::no_targets          nan                       # average number of cycles each access was blocked
system.cpu.dcache.writebacks::writebacks       978259                       # number of writebacks
system.cpu.dcache.writebacks::total            978259                       # number of writebacks
system.cpu.icache.tags.pwrStateResidencyTicks::UNDEFINED 158419769000                       # Cumulative time (in ticks) in various power states
system.cpu.icache.tags.replacements          13231194                       # number of replacements
system.cpu.icache.tags.tagsinuse            63.999881                       # Cycle average of tags in use
system.cpu.icache.tags.total_refs        36732177518243                       # Total number of references to valid blocks.
system.cpu.icache.tags.sampled_refs          13231258                       # Sample count of references to valid blocks.
system.cpu.icache.tags.avg_refs          2776166.674268                       # Average number of references to valid blocks.
system.cpu.icache.tags.warmup_cycle                 0                       # Cycle when the warmup percentage was hit.
system.cpu.icache.tags.occ_blocks::cpu.inst    63.999881                       # Average occupied blocks per requestor
system.cpu.icache.tags.occ_percent::cpu.inst     0.999998                       # Average percentage of cache occupancy
system.cpu.icache.tags.occ_percent::total     0.999998                       # Average percentage of cache occupancy
system.cpu.icache.tags.occ_task_id_blocks::1024           64                       # Occupied blocks per task id
system.cpu.icache.tags.age_task_id_blocks_1024::0           64                       # Occupied blocks per task id
system.cpu.icache.tags.occ_task_id_percent::1024            1                       # Percentage of cache occupancy per task id
system.cpu.icache.tags.tag_accesses         293830780                       # Number of tag accesses
system.cpu.icache.tags.data_accesses        293830780                       # Number of data accesses
system.cpu.icache.pwrStateResidencyTicks::UNDEFINED 158419769000                       # Cumulative time (in ticks) in various power states
system.cpu.icache.ReadReq_hits::cpu.inst    267368264                       # number of ReadReq hits
system.cpu.icache.ReadReq_hits::total       267368264                       # number of ReadReq hits
system.cpu.icache.demand_hits::cpu.inst     267368264                       # number of demand (read+write) hits
system.cpu.icache.demand_hits::total        267368264                       # number of demand (read+write) hits
system.cpu.icache.overall_hits::cpu.inst    267368264                       # number of overall hits
system.cpu.icache.overall_hits::total       267368264                       # number of overall hits
system.cpu.icache.ReadReq_misses::cpu.inst     13231258                       # number of ReadReq misses
system.cpu.icache.ReadReq_misses::total      13231258                       # number of ReadReq misses
system.cpu.icache.demand_misses::cpu.inst     13231258                       # number of demand (read+write) misses
system.cpu.icache.demand_misses::total       13231258                       # number of demand (read+write) misses
system.cpu.icache.overall_misses::cpu.inst     13231258                       # number of overall misses
system.cpu.icache.overall_misses::total      13231258                       # number of overall misses
system.cpu.icache.ReadReq_accesses::cpu.inst    280599522                       # number of ReadReq accesses(hits+misses)
system.cpu.icache.ReadReq_accesses::total    280599522                       # number of ReadReq accesses(hits+misses)
system.cpu.icache.demand_accesses::cpu.inst    280599522                       # number of demand (read+write) accesses
system.cpu.icache.demand_accesses::total    280599522                       # number of demand (read+write) accesses
system.cpu.icache.overall_accesses::cpu.inst    280599522                       # number of overall (read+write) accesses
system.cpu.icache.overall_accesses::total    280599522                       # number of overall (read+write) accesses
system.cpu.icache.ReadReq_miss_rate::cpu.inst     0.047154                       # miss rate for ReadReq accesses
system.cpu.icache.ReadReq_miss_rate::total     0.047154                       # miss rate for ReadReq accesses
system.cpu.icache.demand_miss_rate::cpu.inst     0.047154                       # miss rate for demand accesses
system.cpu.icache.demand_miss_rate::total     0.047154                       # miss rate for demand accesses
system.cpu.icache.overall_miss_rate::cpu.inst     0.047154                       # miss rate for overall accesses
system.cpu.icache.overall_miss_rate::total     0.047154                       # miss rate for overall accesses
system.cpu.icache.blocked_cycles::no_mshrs            0                       # number of cycles access was blocked
system.cpu.icache.blocked_cycles::no_targets            0                       # number of cycles access was blocked
system.cpu.icache.blocked::no_mshrs                 0                       # number of cycles access was blocked
system.cpu.icache.blocked::no_targets               0                       # number of cycles access was blocked
system.cpu.icache.avg_blocked_cycles::no_mshrs          nan                       # average number of cycles each access was blocked
system.cpu.icache.avg_blocked_cycles::no_targets          nan                       # average number of cycles each access was blocked
system.cpu.icache.writebacks::writebacks     13231194                       # number of writebacks
system.cpu.icache.writebacks::total          13231194                       # number of writebacks
system.l2.tags.pwrStateResidencyTicks::UNDEFINED 158419769000                       # Cumulative time (in ticks) in various power states
system.l2.tags.replacements                   4056980                       # number of replacements
system.l2.tags.tagsinuse                   511.996355                       # Cycle average of tags in use
system.l2.tags.total_refs                 78187695274                       # Total number of references to valid blocks.
system.l2.tags.sampled_refs                   4057492                       # Sample count of references to valid blocks.
system.l2.tags.avg_refs                  19269.956730                       # Average number of references to valid blocks.
system.l2.tags.warmup_cycle                         0                       # Cycle when the warmup percentage was hit.
system.l2.tags.occ_blocks::writebacks       49.964768                       # Average occupied blocks per requestor
system.l2.tags.occ_blocks::cpu.inst        364.443474                       # Average occupied blocks per requestor
system.l2.tags.occ_blocks::cpu.data         97.588113                       # Average occupied blocks per requestor
system.l2.tags.occ_percent::writebacks       0.097587                       # Average percentage of cache occupancy
system.l2.tags.occ_percent::cpu.inst         0.711804                       # Average percentage of cache occupancy
system.l2.tags.occ_percent::cpu.data         0.190602                       # Average percentage of cache occupancy
system.l2.tags.occ_percent::total            0.999993                       # Average percentage of cache occupancy
system.l2.tags.occ_task_id_blocks::1024           512                       # Occupied blocks per task id
system.l2.tags.age_task_id_blocks_1024::0           83                       # Occupied blocks per task id
system.l2.tags.age_task_id_blocks_1024::2           11                       # Occupied blocks per task id
system.l2.tags.age_task_id_blocks_1024::3          312                       # Occupied blocks per task id
system.l2.tags.age_task_id_blocks_1024::4          106                       # Occupied blocks per task id
system.l2.tags.occ_task_id_percent::1024            1                       # Percentage of cache occupancy per task id
system.l2.tags.tag_accesses                 511290932                       # Number of tag accesses
system.l2.tags.data_accesses                511290932                       # Number of data accesses
system.l2.pwrStateResidencyTicks::UNDEFINED 158419769000                       # Cumulative time (in ticks) in various power states
system.l2.WritebackDirty_hits::writebacks       978259                       # number of WritebackDirty hits
system.l2.WritebackDirty_hits::total           978259                       # number of WritebackDirty hits
system.l2.WritebackClean_hits::writebacks     13131922                       # number of WritebackClean hits
system.l2.WritebackClean_hits::total         13131922                       # number of WritebackClean hits
system.l2.ReadExReq_hits::cpu.data             572598                       # number of ReadExReq hits
system.l2.ReadExReq_hits::total                572598                       # number of ReadExReq hits
system.l2.ReadCleanReq_hits::cpu.inst        10068188                       # number of ReadCleanReq hits
system.l2.ReadCleanReq_hits::total           10068188                       # number of ReadCleanReq hits
system.l2.ReadSharedReq_hits::cpu.data        1533580                       # number of ReadSharedReq hits
system.l2.ReadSharedReq_hits::total           1533580                       # number of ReadSharedReq hits
system.l2.demand_hits::cpu.inst              10068188                       # number of demand (read+write) hits
system.l2.demand_hits::cpu.data               2106178                       # number of demand (read+write) hits
system.l2.demand_hits::total                 12174366                       # number of demand (read+write) hits
system.l2.overall_hits::cpu.inst             10068188                       # number of overall hits
system.l2.overall_hits::cpu.data              2106178                       # number of overall hits
system.l2.overall_hits::total                12174366                       # number of overall hits
system.l2.ReadExReq_misses::cpu.data            85393                       # number of ReadExReq misses
system.l2.ReadExReq_misses::total               85393                       # number of ReadExReq misses
system.l2.ReadCleanReq_misses::cpu.inst       3163070                       # number of ReadCleanReq misses
system.l2.ReadCleanReq_misses::total          3163070                       # number of ReadCleanReq misses
system.l2.ReadSharedReq_misses::cpu.data       487919                       # number of ReadSharedReq misses
system.l2.ReadSharedReq_misses::total          487919                       # number of ReadSharedReq misses
system.l2.demand_misses::cpu.inst             3163070                       # number of demand (read+write) misses
system.l2.demand_misses::cpu.data              573312                       # number of demand (read+write) misses
system.l2.demand_misses::total                3736382                       # number of demand (read+write) misses
system.l2.overall_misses::cpu.inst            3163070                       # number of overall misses
system.l2.overall_misses::cpu.data             573312                       # number of overall misses
system.l2.overall_misses::total               3736382                       # number of overall misses
system.l2.WritebackDirty_accesses::writebacks       978259                       # number of WritebackDirty accesses(hits+misses)
system.l2.WritebackDirty_accesses::total       978259                       # number of WritebackDirty accesses(hits+misses)
system.l2.WritebackClean_accesses::writebacks     13131922                       # number of WritebackClean accesses(hits+misses)
system.l2.WritebackClean_accesses::total     13131922                       # number of WritebackClean accesses(hits+misses)
system.l2.ReadExReq_accesses::cpu.data         657991                       # number of ReadExReq accesses(hits+misses)
system.l2.ReadExReq_accesses::total            657991                       # number of ReadExReq accesses(hits+misses)
system.l2.ReadCleanReq_accesses::cpu.inst     13231258                       # number of ReadCleanReq accesses(hits+misses)
system.l2.ReadCleanReq_accesses::total       13231258                       # number of ReadCleanReq accesses(hits+misses)
system.l2.ReadSharedReq_accesses::cpu.data      2021499                       # number of ReadSharedReq accesses(hits+misses)
system.l2.ReadSharedReq_accesses::total       2021499                       # number of ReadSharedReq accesses(hits+misses)
system.l2.demand_accesses::cpu.inst          13231258                       # number of demand (read+write) accesses
system.l2.demand_accesses::cpu.data           2679490                       # number of demand (read+write) accesses
system.l2.demand_accesses::total             15910748                       # number of demand (read+write) accesses
system.l2.overall_accesses::cpu.inst         13231258                       # number of overall (read+write) accesses
system.l2.overall_accesses::cpu.data          2679490                       # number of overall (read+write) accesses
system.l2.overall_accesses::total            15910748                       # number of overall (read+write) accesses
system.l2.ReadExReq_miss_rate::cpu.data      0.129778                       # miss rate for ReadExReq accesses
system.l2.ReadExReq_miss_rate::total         0.129778                       # miss rate for ReadExReq accesses
system.l2.ReadCleanReq_miss_rate::cpu.inst     0.239060                       # miss rate for ReadCleanReq accesses
system.l2.ReadCleanReq_miss_rate::total      0.239060                       # miss rate for ReadCleanReq accesses
system.l2.ReadSharedReq_miss_rate::cpu.data     0.241365                       # miss rate for ReadSharedReq accesses
system.l2.ReadSharedReq_miss_rate::total     0.241365                       # miss rate for ReadSharedReq accesses
system.l2.demand_miss_rate::cpu.inst         0.239060                       # miss rate for demand accesses
system.l2.demand_miss_rate::cpu.data         0.213963                       # miss rate for demand accesses
system.l2.demand_miss_rate::total            0.234834                       # miss rate for demand accesses
system.l2.overall_miss_rate::cpu.inst        0.239060                       # miss rate for overall accesses
system.l2.overall_miss_rate::cpu.data        0.213963                       # miss rate for overall accesses
system.l2.overall_miss_rate::total           0.234834                       # miss rate for overall accesses
system.l2.blocked_cycles::no_mshrs                  0                       # number of cycles access was blocked
system.l2.blocked_cycles::no_targets                0                       # number of cycles access was blocked
system.l2.blocked::no_mshrs                         0                       # number of cycles access was blocked
system.l2.blocked::no_targets                       0                       # number of cycles access was blocked
system.l2.avg_blocked_cycles::no_mshrs            nan                       # average number of cycles each access was blocked
system.l2.avg_blocked_cycles::no_targets          nan                       # average number of cycles each access was blocked
system.l2.writebacks::writebacks                86450                       # number of writebacks
system.l2.writebacks::total                     86450                       # number of writebacks
system.membus.snoop_filter.tot_requests       7471953                       # Total number of requests made to the snoop filter.
system.membus.snoop_filter.hit_single_requests      3735863                       # Number of requests hitting in the snoop filter with a single holder of the requested data.
system.membus.snoop_filter.hit_multi_requests            0                       # Number of requests hitting in the snoop filter with multiple (>1) holders of the requested data.
system.membus.snoop_filter.tot_snoops               0                       # Total number of snoops made to the snoop filter.
system.membus.snoop_filter.hit_single_snoops            0                       # Number of snoops hitting in the snoop filter with a single holder of the requested data.
system.membus.snoop_filter.hit_multi_snoops            0                       # Number of snoops hitting in the snoop filter with multiple (>1) holders of the requested data.
system.membus.pwrStateResidencyTicks::UNDEFINED 158419769000                       # Cumulative time (in ticks) in various power states
system.membus.trans_dist::ReadResp            3650989                       # Transaction distribution
system.membus.trans_dist::WritebackDirty        86450                       # Transaction distribution
system.membus.trans_dist::CleanEvict          3649121                       # Transaction distribution
system.membus.trans_dist::ReadExReq             85393                       # Transaction distribution
system.membus.trans_dist::ReadExResp            85393                       # Transaction distribution
system.membus.trans_dist::ReadSharedReq       3650989                       # Transaction distribution
system.membus.pkt_count_system.l2.mem_side::system.mem_ctrls.port     11208335                       # Packet count per connected master and slave (bytes)
system.membus.pkt_count::total               11208335                       # Packet count per connected master and slave (bytes)
system.membus.pkt_size_system.l2.mem_side::system.mem_ctrls.port    122330624                       # Cumulative packet size per connected master and slave (bytes)
system.membus.pkt_size::total               122330624                       # Cumulative packet size per connected master and slave (bytes)
system.membus.snoops                                0                       # Total snoops (count)
system.membus.snoopTraffic                          0                       # Total snoop traffic (bytes)
system.membus.snoop_fanout::samples           3736382                       # Request fanout histogram
system.membus.snoop_fanout::mean                    0                       # Request fanout histogram
system.membus.snoop_fanout::stdev                   0                       # Request fanout histogram
system.membus.snoop_fanout::underflows              0      0.00%      0.00% # Request fanout histogram
system.membus.snoop_fanout::0                 3736382    100.00%    100.00% # Request fanout histogram
system.membus.snoop_fanout::1                       0      0.00%    100.00% # Request fanout histogram
system.membus.snoop_fanout::overflows               0      0.00%    100.00% # Request fanout histogram
system.membus.snoop_fanout::min_value               0                       # Request fanout histogram
system.membus.snoop_fanout::max_value               0                       # Request fanout histogram
system.membus.snoop_fanout::total             3736382                       # Request fanout histogram
system.tol2bus.snoop_filter.tot_requests     31821400                       # Total number of requests made to the snoop filter.
system.tol2bus.snoop_filter.hit_single_requests     15910652                       # Number of requests hitting in the snoop filter with a single holder of the requested data.
system.tol2bus.snoop_filter.hit_multi_requests       119310                       # Number of requests hitting in the snoop filter with multiple (>1) holders of the requested data.
system.tol2bus.snoop_filter.tot_snoops         404446                       # Total number of snoops made to the snoop filter.
system.tol2bus.snoop_filter.hit_single_snoops       404439                       # Number of snoops hitting in the snoop filter with a single holder of the requested data.
system.tol2bus.snoop_filter.hit_multi_snoops            7                       # Number of snoops hitting in the snoop filter with multiple (>1) holders of the requested data.
system.tol2bus.pwrStateResidencyTicks::UNDEFINED 158419769000                       # Cumulative time (in ticks) in various power states
system.tol2bus.trans_dist::ReadResp          15252757                       # Transaction distribution
system.tol2bus.trans_dist::WritebackDirty       978259                       # Transaction distribution
system.tol2bus.trans_dist::WritebackClean     13231194                       # Transaction distribution
system.tol2bus.trans_dist::CleanEvict         1701199                       # Transaction distribution
system.tol2bus.trans_dist::ReadExReq           657991                       # Transaction distribution
system.tol2bus.trans_dist::ReadExResp          657991                       # Transaction distribution
system.tol2bus.trans_dist::ReadCleanReq      13231258                       # Transaction distribution
system.tol2bus.trans_dist::ReadSharedReq      2021499                       # Transaction distribution
system.tol2bus.pkt_count_system.cpu.icache.mem_side::system.l2.cpu_side     39693710                       # Packet count per connected master and slave (bytes)
system.tol2bus.pkt_count_system.cpu.dcache.mem_side::system.l2.cpu_side      8038438                       # Packet count per connected master and slave (bytes)
system.tol2bus.pkt_count::total              47732148                       # Packet count per connected master and slave (bytes)
system.tol2bus.pkt_size_system.cpu.icache.mem_side::system.l2.cpu_side    846798464                       # Cumulative packet size per connected master and slave (bytes)
system.tol2bus.pkt_size_system.cpu.dcache.mem_side::system.l2.cpu_side    117047968                       # Cumulative packet size per connected master and slave (bytes)
system.tol2bus.pkt_size::total              963846432                       # Cumulative packet size per connected master and slave (bytes)
system.tol2bus.snoops                         4056980                       # Total snoops (count)
system.tol2bus.snoopTraffic                   2766400                       # Total snoop traffic (bytes)
system.tol2bus.snoop_fanout::samples         19967728                       # Request fanout histogram
system.tol2bus.snoop_fanout::mean            0.026230                       # Request fanout histogram
system.tol2bus.snoop_fanout::stdev           0.159822                       # Request fanout histogram
system.tol2bus.snoop_fanout::underflows             0      0.00%      0.00% # Request fanout histogram
system.tol2bus.snoop_fanout::0               19443972     97.38%     97.38% # Request fanout histogram
system.tol2bus.snoop_fanout::1                 523749      2.62%    100.00% # Request fanout histogram
system.tol2bus.snoop_fanout::2                      7      0.00%    100.00% # Request fanout histogram
system.tol2bus.snoop_fanout::overflows              0      0.00%    100.00% # Request fanout histogram
system.tol2bus.snoop_fanout::min_value              0                       # Request fanout histogram
system.tol2bus.snoop_fanout::max_value              2                       # Request fanout histogram
system.tol2bus.snoop_fanout::total           19967728                       # Request fanout histogram

---------- End Simulation Statistics   ----------
