
---------- Begin Simulation Statistics ----------
sim_seconds                                  0.062224                       # Number of seconds simulated
sim_ticks                                 62224028000                       # Number of ticks simulated
final_tick                                62224028000                       # Number of ticks from beginning of simulation (restored from checkpoints and never reset)
sim_freq                                 1000000000000                       # Frequency of simulated ticks
host_inst_rate                                2149379                       # Simulator instruction rate (inst/s)
host_op_rate                                  2486789                       # Simulator op (including micro ops) rate (op/s)
host_tick_rate                             1243394531                       # Simulator tick rate (ticks/s)
host_mem_usage                                 668404                       # Number of bytes of host memory used
host_seconds                                    50.04                       # Real time elapsed on the host
sim_insts                                   107562807                       # Number of instructions simulated
sim_ops                                     124448029                       # Number of ops (including micro ops) simulated
system.voltage_domain.voltage                       1                       # Voltage in Volts
system.clk_domain.clock                          1000                       # Clock period in ticks
system.mem_ctrls.pwrStateResidencyTicks::UNDEFINED  62224028000                       # Cumulative time (in ticks) in various power states
system.mem_ctrls.bytes_read::cpu.inst          294208                       # Number of bytes read from this memory
system.mem_ctrls.bytes_read::cpu.data          962592                       # Number of bytes read from this memory
system.mem_ctrls.bytes_read::total            1256800                       # Number of bytes read from this memory
system.mem_ctrls.bytes_inst_read::cpu.inst       294208                       # Number of instructions bytes read from this memory
system.mem_ctrls.bytes_inst_read::total        294208                       # Number of instructions bytes read from this memory
system.mem_ctrls.bytes_written::writebacks       805440                       # Number of bytes written to this memory
system.mem_ctrls.bytes_written::total          805440                       # Number of bytes written to this memory
system.mem_ctrls.num_reads::cpu.inst             9194                       # Number of read requests responded to by this memory
system.mem_ctrls.num_reads::cpu.data            30081                       # Number of read requests responded to by this memory
system.mem_ctrls.num_reads::total               39275                       # Number of read requests responded to by this memory
system.mem_ctrls.num_writes::writebacks         25170                       # Number of write requests responded to by this memory
system.mem_ctrls.num_writes::total              25170                       # Number of write requests responded to by this memory
system.mem_ctrls.bw_read::cpu.inst            4728206                       # Total read bandwidth from this memory (bytes/s)
system.mem_ctrls.bw_read::cpu.data           15469780                       # Total read bandwidth from this memory (bytes/s)
system.mem_ctrls.bw_read::total              20197985                       # Total read bandwidth from this memory (bytes/s)
system.mem_ctrls.bw_inst_read::cpu.inst       4728206                       # Instruction read bandwidth from this memory (bytes/s)
system.mem_ctrls.bw_inst_read::total          4728206                       # Instruction read bandwidth from this memory (bytes/s)
system.mem_ctrls.bw_write::writebacks        12944196                       # Write bandwidth from this memory (bytes/s)
system.mem_ctrls.bw_write::total             12944196                       # Write bandwidth from this memory (bytes/s)
system.mem_ctrls.bw_total::writebacks        12944196                       # Total bandwidth to/from this memory (bytes/s)
system.mem_ctrls.bw_total::cpu.inst           4728206                       # Total bandwidth to/from this memory (bytes/s)
system.mem_ctrls.bw_total::cpu.data          15469780                       # Total bandwidth to/from this memory (bytes/s)
system.mem_ctrls.bw_total::total             33142181                       # Total bandwidth to/from this memory (bytes/s)
system.mem_ctrls.readReqs                           0                       # Number of read requests accepted
system.mem_ctrls.writeReqs                          0                       # Number of write requests accepted
system.mem_ctrls.readBursts                         0                       # Number of DRAM read bursts, including those serviced by the write queue
system.mem_ctrls.writeBursts                        0                       # Number of DRAM write bursts, including those merged in the write queue
system.mem_ctrls.bytesReadDRAM                      0                       # Total number of bytes read from DRAM
system.mem_ctrls.bytesReadWrQ                       0                       # Total number of bytes read from write queue
system.mem_ctrls.bytesWritten                       0                       # Total number of bytes written to DRAM
system.mem_ctrls.bytesReadSys                       0                       # Total read bytes from the system interface side
system.mem_ctrls.bytesWrittenSys                    0                       # Total written bytes from the system interface side
system.mem_ctrls.servicedByWrQ                      0                       # Number of DRAM read bursts serviced by the write queue
system.mem_ctrls.mergedWrBursts                     0                       # Number of DRAM write bursts merged with an existing one
system.mem_ctrls.neitherReadNorWriteReqs            0                       # Number of requests that are neither read nor write
system.mem_ctrls.perBankRdBursts::0                 0                       # Per bank write bursts
system.mem_ctrls.perBankRdBursts::1                 0                       # Per bank write bursts
system.mem_ctrls.perBankRdBursts::2                 0                       # Per bank write bursts
system.mem_ctrls.perBankRdBursts::3                 0                       # Per bank write bursts
system.mem_ctrls.perBankRdBursts::4                 0                       # Per bank write bursts
system.mem_ctrls.perBankRdBursts::5                 0                       # Per bank write bursts
system.mem_ctrls.perBankRdBursts::6                 0                       # Per bank write bursts
system.mem_ctrls.perBankRdBursts::7                 0                       # Per bank write bursts
system.mem_ctrls.perBankRdBursts::8                 0                       # Per bank write bursts
system.mem_ctrls.perBankRdBursts::9                 0                       # Per bank write bursts
system.mem_ctrls.perBankRdBursts::10                0                       # Per bank write bursts
system.mem_ctrls.perBankRdBursts::11                0                       # Per bank write bursts
system.mem_ctrls.perBankRdBursts::12                0                       # Per bank write bursts
system.mem_ctrls.perBankRdBursts::13                0                       # Per bank write bursts
system.mem_ctrls.perBankRdBursts::14                0                       # Per bank write bursts
system.mem_ctrls.perBankRdBursts::15                0                       # Per bank write bursts
system.mem_ctrls.perBankWrBursts::0                 0                       # Per bank write bursts
system.mem_ctrls.perBankWrBursts::1                 0                       # Per bank write bursts
system.mem_ctrls.perBankWrBursts::2                 0                       # Per bank write bursts
system.mem_ctrls.perBankWrBursts::3                 0                       # Per bank write bursts
system.mem_ctrls.perBankWrBursts::4                 0                       # Per bank write bursts
system.mem_ctrls.perBankWrBursts::5                 0                       # Per bank write bursts
system.mem_ctrls.perBankWrBursts::6                 0                       # Per bank write bursts
system.mem_ctrls.perBankWrBursts::7                 0                       # Per bank write bursts
system.mem_ctrls.perBankWrBursts::8                 0                       # Per bank write bursts
system.mem_ctrls.perBankWrBursts::9                 0                       # Per bank write bursts
system.mem_ctrls.perBankWrBursts::10                0                       # Per bank write bursts
system.mem_ctrls.perBankWrBursts::11                0                       # Per bank write bursts
system.mem_ctrls.perBankWrBursts::12                0                       # Per bank write bursts
system.mem_ctrls.perBankWrBursts::13                0                       # Per bank write bursts
system.mem_ctrls.perBankWrBursts::14                0                       # Per bank write bursts
system.mem_ctrls.perBankWrBursts::15                0                       # Per bank write bursts
system.mem_ctrls.numRdRetry                         0                       # Number of times read queue was full causing retry
system.mem_ctrls.numWrRetry                         0                       # Number of times write queue was full causing retry
system.mem_ctrls.totGap                             0                       # Total gap between requests
system.mem_ctrls.readPktSize::0                     0                       # Read request sizes (log2)
system.mem_ctrls.readPktSize::1                     0                       # Read request sizes (log2)
system.mem_ctrls.readPktSize::2                     0                       # Read request sizes (log2)
system.mem_ctrls.readPktSize::3                     0                       # Read request sizes (log2)
system.mem_ctrls.readPktSize::4                     0                       # Read request sizes (log2)
system.mem_ctrls.readPktSize::5                     0                       # Read request sizes (log2)
system.mem_ctrls.readPktSize::6                     0                       # Read request sizes (log2)
system.mem_ctrls.writePktSize::0                    0                       # Write request sizes (log2)
system.mem_ctrls.writePktSize::1                    0                       # Write request sizes (log2)
system.mem_ctrls.writePktSize::2                    0                       # Write request sizes (log2)
system.mem_ctrls.writePktSize::3                    0                       # Write request sizes (log2)
system.mem_ctrls.writePktSize::4                    0                       # Write request sizes (log2)
system.mem_ctrls.writePktSize::5                    0                       # Write request sizes (log2)
system.mem_ctrls.writePktSize::6                    0                       # Write request sizes (log2)
system.mem_ctrls.rdQLenPdf::0                       0                       # What read queue length does an incoming req see
system.mem_ctrls.rdQLenPdf::1                       0                       # What read queue length does an incoming req see
system.mem_ctrls.rdQLenPdf::2                       0                       # What read queue length does an incoming req see
system.mem_ctrls.rdQLenPdf::3                       0                       # What read queue length does an incoming req see
system.mem_ctrls.rdQLenPdf::4                       0                       # What read queue length does an incoming req see
system.mem_ctrls.rdQLenPdf::5                       0                       # What read queue length does an incoming req see
system.mem_ctrls.rdQLenPdf::6                       0                       # What read queue length does an incoming req see
system.mem_ctrls.rdQLenPdf::7                       0                       # What read queue length does an incoming req see
system.mem_ctrls.rdQLenPdf::8                       0                       # What read queue length does an incoming req see
system.mem_ctrls.rdQLenPdf::9                       0                       # What read queue length does an incoming req see
system.mem_ctrls.rdQLenPdf::10                      0                       # What read queue length does an incoming req see
system.mem_ctrls.rdQLenPdf::11                      0                       # What read queue length does an incoming req see
system.mem_ctrls.rdQLenPdf::12                      0                       # What read queue length does an incoming req see
system.mem_ctrls.rdQLenPdf::13                      0                       # What read queue length does an incoming req see
system.mem_ctrls.rdQLenPdf::14                      0                       # What read queue length does an incoming req see
system.mem_ctrls.rdQLenPdf::15                      0                       # What read queue length does an incoming req see
system.mem_ctrls.rdQLenPdf::16                      0                       # What read queue length does an incoming req see
system.mem_ctrls.rdQLenPdf::17                      0                       # What read queue length does an incoming req see
system.mem_ctrls.rdQLenPdf::18                      0                       # What read queue length does an incoming req see
system.mem_ctrls.rdQLenPdf::19                      0                       # What read queue length does an incoming req see
system.mem_ctrls.rdQLenPdf::20                      0                       # What read queue length does an incoming req see
system.mem_ctrls.rdQLenPdf::21                      0                       # What read queue length does an incoming req see
system.mem_ctrls.rdQLenPdf::22                      0                       # What read queue length does an incoming req see
system.mem_ctrls.rdQLenPdf::23                      0                       # What read queue length does an incoming req see
system.mem_ctrls.rdQLenPdf::24                      0                       # What read queue length does an incoming req see
system.mem_ctrls.rdQLenPdf::25                      0                       # What read queue length does an incoming req see
system.mem_ctrls.rdQLenPdf::26                      0                       # What read queue length does an incoming req see
system.mem_ctrls.rdQLenPdf::27                      0                       # What read queue length does an incoming req see
system.mem_ctrls.rdQLenPdf::28                      0                       # What read queue length does an incoming req see
system.mem_ctrls.rdQLenPdf::29                      0                       # What read queue length does an incoming req see
system.mem_ctrls.rdQLenPdf::30                      0                       # What read queue length does an incoming req see
system.mem_ctrls.rdQLenPdf::31                      0                       # What read queue length does an incoming req see
system.mem_ctrls.wrQLenPdf::0                       0                       # What write queue length does an incoming req see
system.mem_ctrls.wrQLenPdf::1                       0                       # What write queue length does an incoming req see
system.mem_ctrls.wrQLenPdf::2                       0                       # What write queue length does an incoming req see
system.mem_ctrls.wrQLenPdf::3                       0                       # What write queue length does an incoming req see
system.mem_ctrls.wrQLenPdf::4                       0                       # What write queue length does an incoming req see
system.mem_ctrls.wrQLenPdf::5                       0                       # What write queue length does an incoming req see
system.mem_ctrls.wrQLenPdf::6                       0                       # What write queue length does an incoming req see
system.mem_ctrls.wrQLenPdf::7                       0                       # What write queue length does an incoming req see
system.mem_ctrls.wrQLenPdf::8                       0                       # What write queue length does an incoming req see
system.mem_ctrls.wrQLenPdf::9                       0                       # What write queue length does an incoming req see
system.mem_ctrls.wrQLenPdf::10                      0                       # What write queue length does an incoming req see
system.mem_ctrls.wrQLenPdf::11                      0                       # What write queue length does an incoming req see
system.mem_ctrls.wrQLenPdf::12                      0                       # What write queue length does an incoming req see
system.mem_ctrls.wrQLenPdf::13                      0                       # What write queue length does an incoming req see
system.mem_ctrls.wrQLenPdf::14                      0                       # What write queue length does an incoming req see
system.mem_ctrls.wrQLenPdf::15                      0                       # What write queue length does an incoming req see
system.mem_ctrls.wrQLenPdf::16                      0                       # What write queue length does an incoming req see
system.mem_ctrls.wrQLenPdf::17                      0                       # What write queue length does an incoming req see
system.mem_ctrls.wrQLenPdf::18                      0                       # What write queue length does an incoming req see
system.mem_ctrls.wrQLenPdf::19                      0                       # What write queue length does an incoming req see
system.mem_ctrls.wrQLenPdf::20                      0                       # What write queue length does an incoming req see
system.mem_ctrls.wrQLenPdf::21                      0                       # What write queue length does an incoming req see
system.mem_ctrls.wrQLenPdf::22                      0                       # What write queue length does an incoming req see
system.mem_ctrls.wrQLenPdf::23                      0                       # What write queue length does an incoming req see
system.mem_ctrls.wrQLenPdf::24                      0                       # What write queue length does an incoming req see
system.mem_ctrls.wrQLenPdf::25                      0                       # What write queue length does an incoming req see
system.mem_ctrls.wrQLenPdf::26                      0                       # What write queue length does an incoming req see
system.mem_ctrls.wrQLenPdf::27                      0                       # What write queue length does an incoming req see
system.mem_ctrls.wrQLenPdf::28                      0                       # What write queue length does an incoming req see
system.mem_ctrls.wrQLenPdf::29                      0                       # What write queue length does an incoming req see
system.mem_ctrls.wrQLenPdf::30                      0                       # What write queue length does an incoming req see
system.mem_ctrls.wrQLenPdf::31                      0                       # What write queue length does an incoming req see
system.mem_ctrls.wrQLenPdf::32                      0                       # What write queue length does an incoming req see
system.mem_ctrls.wrQLenPdf::33                      0                       # What write queue length does an incoming req see
system.mem_ctrls.wrQLenPdf::34                      0                       # What write queue length does an incoming req see
system.mem_ctrls.wrQLenPdf::35                      0                       # What write queue length does an incoming req see
system.mem_ctrls.wrQLenPdf::36                      0                       # What write queue length does an incoming req see
system.mem_ctrls.wrQLenPdf::37                      0                       # What write queue length does an incoming req see
system.mem_ctrls.wrQLenPdf::38                      0                       # What write queue length does an incoming req see
system.mem_ctrls.wrQLenPdf::39                      0                       # What write queue length does an incoming req see
system.mem_ctrls.wrQLenPdf::40                      0                       # What write queue length does an incoming req see
system.mem_ctrls.wrQLenPdf::41                      0                       # What write queue length does an incoming req see
system.mem_ctrls.wrQLenPdf::42                      0                       # What write queue length does an incoming req see
system.mem_ctrls.wrQLenPdf::43                      0                       # What write queue length does an incoming req see
system.mem_ctrls.wrQLenPdf::44                      0                       # What write queue length does an incoming req see
system.mem_ctrls.wrQLenPdf::45                      0                       # What write queue length does an incoming req see
system.mem_ctrls.wrQLenPdf::46                      0                       # What write queue length does an incoming req see
system.mem_ctrls.wrQLenPdf::47                      0                       # What write queue length does an incoming req see
system.mem_ctrls.wrQLenPdf::48                      0                       # What write queue length does an incoming req see
system.mem_ctrls.wrQLenPdf::49                      0                       # What write queue length does an incoming req see
system.mem_ctrls.wrQLenPdf::50                      0                       # What write queue length does an incoming req see
system.mem_ctrls.wrQLenPdf::51                      0                       # What write queue length does an incoming req see
system.mem_ctrls.wrQLenPdf::52                      0                       # What write queue length does an incoming req see
system.mem_ctrls.wrQLenPdf::53                      0                       # What write queue length does an incoming req see
system.mem_ctrls.wrQLenPdf::54                      0                       # What write queue length does an incoming req see
system.mem_ctrls.wrQLenPdf::55                      0                       # What write queue length does an incoming req see
system.mem_ctrls.wrQLenPdf::56                      0                       # What write queue length does an incoming req see
system.mem_ctrls.wrQLenPdf::57                      0                       # What write queue length does an incoming req see
system.mem_ctrls.wrQLenPdf::58                      0                       # What write queue length does an incoming req see
system.mem_ctrls.wrQLenPdf::59                      0                       # What write queue length does an incoming req see
system.mem_ctrls.wrQLenPdf::60                      0                       # What write queue length does an incoming req see
system.mem_ctrls.wrQLenPdf::61                      0                       # What write queue length does an incoming req see
system.mem_ctrls.wrQLenPdf::62                      0                       # What write queue length does an incoming req see
system.mem_ctrls.wrQLenPdf::63                      0                       # What write queue length does an incoming req see
system.mem_ctrls.totQLat                            0                       # Total ticks spent queuing
system.mem_ctrls.totMemAccLat                       0                       # Total ticks spent from burst creation until serviced by the DRAM
system.mem_ctrls.totBusLat                          0                       # Total ticks spent in databus transfers
system.mem_ctrls.avgQLat                          nan                       # Average queueing delay per DRAM burst
system.mem_ctrls.avgBusLat                        nan                       # Average bus latency per DRAM burst
system.mem_ctrls.avgMemAccLat                     nan                       # Average memory access latency per DRAM burst
system.mem_ctrls.avgRdBW                         0.00                       # Average DRAM read bandwidth in MiByte/s
system.mem_ctrls.avgWrBW                         0.00                       # Average achieved write bandwidth in MiByte/s
system.mem_ctrls.avgRdBWSys                      0.00                       # Average system read bandwidth in MiByte/s
system.mem_ctrls.avgWrBWSys                      0.00                       # Average system write bandwidth in MiByte/s
system.mem_ctrls.peakBW                      12800.00                       # Theoretical peak bandwidth in MiByte/s
system.mem_ctrls.busUtil                         0.00                       # Data bus utilization in percentage
system.mem_ctrls.busUtilRead                     0.00                       # Data bus utilization in percentage for reads
system.mem_ctrls.busUtilWrite                    0.00                       # Data bus utilization in percentage for writes
system.mem_ctrls.avgRdQLen                       0.00                       # Average read queue length when enqueuing
system.mem_ctrls.avgWrQLen                       0.00                       # Average write queue length when enqueuing
system.mem_ctrls.readRowHits                        0                       # Number of row buffer hits during reads
system.mem_ctrls.writeRowHits                       0                       # Number of row buffer hits during writes
system.mem_ctrls.readRowHitRate                   nan                       # Row buffer hit rate for reads
system.mem_ctrls.writeRowHitRate                  nan                       # Row buffer hit rate for writes
system.mem_ctrls.avgGap                           nan                       # Average gap between requests
system.mem_ctrls.pageHitRate                      nan                       # Row buffer hit rate, read and write combined
system.mem_ctrls_0.actEnergy                        0                       # Energy for activate commands per rank (pJ)
system.mem_ctrls_0.preEnergy                        0                       # Energy for precharge commands per rank (pJ)
system.mem_ctrls_0.readEnergy                       0                       # Energy for read commands per rank (pJ)
system.mem_ctrls_0.writeEnergy                      0                       # Energy for write commands per rank (pJ)
system.mem_ctrls_0.refreshEnergy                    0                       # Energy for refresh commands per rank (pJ)
system.mem_ctrls_0.actBackEnergy                    0                       # Energy for active background per rank (pJ)
system.mem_ctrls_0.preBackEnergy          23894027040                       # Energy for precharge background per rank (pJ)
system.mem_ctrls_0.actPowerDownEnergy               0                       # Energy for active power-down per rank (pJ)
system.mem_ctrls_0.prePowerDownEnergy               0                       # Energy for precharge power-down per rank (pJ)
system.mem_ctrls_0.selfRefreshEnergy                0                       # Energy for self refresh per rank (pJ)
system.mem_ctrls_0.totalEnergy            23894027040                       # Total energy per rank (pJ)
system.mem_ctrls_0.averagePower            384.000005                       # Core power per rank (mW)
system.mem_ctrls_0.totalIdleTime                    0                       # Total Idle time Per DRAM Rank
system.mem_ctrls_0.memoryStateTime::IDLE  62224028000                       # Time in different power states
system.mem_ctrls_0.memoryStateTime::REF             0                       # Time in different power states
system.mem_ctrls_0.memoryStateTime::SREF            0                       # Time in different power states
system.mem_ctrls_0.memoryStateTime::PRE_PDN            0                       # Time in different power states
system.mem_ctrls_0.memoryStateTime::ACT             0                       # Time in different power states
system.mem_ctrls_0.memoryStateTime::ACT_PDN            0                       # Time in different power states
system.mem_ctrls_1.actEnergy                        0                       # Energy for activate commands per rank (pJ)
system.mem_ctrls_1.preEnergy                        0                       # Energy for precharge commands per rank (pJ)
system.mem_ctrls_1.readEnergy                       0                       # Energy for read commands per rank (pJ)
system.mem_ctrls_1.writeEnergy                      0                       # Energy for write commands per rank (pJ)
system.mem_ctrls_1.refreshEnergy                    0                       # Energy for refresh commands per rank (pJ)
system.mem_ctrls_1.actBackEnergy                    0                       # Energy for active background per rank (pJ)
system.mem_ctrls_1.preBackEnergy          23894027040                       # Energy for precharge background per rank (pJ)
system.mem_ctrls_1.actPowerDownEnergy               0                       # Energy for active power-down per rank (pJ)
system.mem_ctrls_1.prePowerDownEnergy               0                       # Energy for precharge power-down per rank (pJ)
system.mem_ctrls_1.selfRefreshEnergy                0                       # Energy for self refresh per rank (pJ)
system.mem_ctrls_1.totalEnergy            23894027040                       # Total energy per rank (pJ)
system.mem_ctrls_1.averagePower            384.000005                       # Core power per rank (mW)
system.mem_ctrls_1.totalIdleTime                    0                       # Total Idle time Per DRAM Rank
system.mem_ctrls_1.memoryStateTime::IDLE  62224028000                       # Time in different power states
system.mem_ctrls_1.memoryStateTime::REF             0                       # Time in different power states
system.mem_ctrls_1.memoryStateTime::SREF            0                       # Time in different power states
system.mem_ctrls_1.memoryStateTime::PRE_PDN            0                       # Time in different power states
system.mem_ctrls_1.memoryStateTime::ACT             0                       # Time in different power states
system.mem_ctrls_1.memoryStateTime::ACT_PDN            0                       # Time in different power states
system.pwrStateResidencyTicks::UNDEFINED  62224028000                       # Cumulative time (in ticks) in various power states
system.cpu_voltage_domain.voltage                   1                       # Voltage in Volts
system.cpu_clk_domain.clock                       500                       # Clock period in ticks
system.cpu.dstage2_mmu.stage2_tlb.walker.pwrStateResidencyTicks::UNDEFINED  62224028000                       # Cumulative time (in ticks) in various power states
system.cpu.dstage2_mmu.stage2_tlb.walker.walks            0                       # Table walker walks requested
system.cpu.dstage2_mmu.stage2_tlb.walker.walkRequestOrigin_Requested::Data            0                       # Table walker requests started/completed, data/inst
system.cpu.dstage2_mmu.stage2_tlb.walker.walkRequestOrigin_Requested::Inst            0                       # Table walker requests started/completed, data/inst
system.cpu.dstage2_mmu.stage2_tlb.walker.walkRequestOrigin_Requested::total            0                       # Table walker requests started/completed, data/inst
system.cpu.dstage2_mmu.stage2_tlb.walker.walkRequestOrigin_Completed::Data            0                       # Table walker requests started/completed, data/inst
system.cpu.dstage2_mmu.stage2_tlb.walker.walkRequestOrigin_Completed::Inst            0                       # Table walker requests started/completed, data/inst
system.cpu.dstage2_mmu.stage2_tlb.walker.walkRequestOrigin_Completed::total            0                       # Table walker requests started/completed, data/inst
system.cpu.dstage2_mmu.stage2_tlb.walker.walkRequestOrigin::total            0                       # Table walker requests started/completed, data/inst
system.cpu.dstage2_mmu.stage2_tlb.inst_hits            0                       # ITB inst hits
system.cpu.dstage2_mmu.stage2_tlb.inst_misses            0                       # ITB inst misses
system.cpu.dstage2_mmu.stage2_tlb.read_hits            0                       # DTB read hits
system.cpu.dstage2_mmu.stage2_tlb.read_misses            0                       # DTB read misses
system.cpu.dstage2_mmu.stage2_tlb.write_hits            0                       # DTB write hits
system.cpu.dstage2_mmu.stage2_tlb.write_misses            0                       # DTB write misses
system.cpu.dstage2_mmu.stage2_tlb.flush_tlb            0                       # Number of times complete TLB was flushed
system.cpu.dstage2_mmu.stage2_tlb.flush_tlb_mva            0                       # Number of times TLB was flushed by MVA
system.cpu.dstage2_mmu.stage2_tlb.flush_tlb_mva_asid            0                       # Number of times TLB was flushed by MVA & ASID
system.cpu.dstage2_mmu.stage2_tlb.flush_tlb_asid            0                       # Number of times TLB was flushed by ASID
system.cpu.dstage2_mmu.stage2_tlb.flush_entries            0                       # Number of entries that have been flushed from TLB
system.cpu.dstage2_mmu.stage2_tlb.align_faults            0                       # Number of TLB faults due to alignment restrictions
system.cpu.dstage2_mmu.stage2_tlb.prefetch_faults            0                       # Number of TLB faults due to prefetch
system.cpu.dstage2_mmu.stage2_tlb.domain_faults            0                       # Number of TLB faults due to domain restrictions
system.cpu.dstage2_mmu.stage2_tlb.perms_faults            0                       # Number of TLB faults due to permissions restrictions
system.cpu.dstage2_mmu.stage2_tlb.read_accesses            0                       # DTB read accesses
system.cpu.dstage2_mmu.stage2_tlb.write_accesses            0                       # DTB write accesses
system.cpu.dstage2_mmu.stage2_tlb.inst_accesses            0                       # ITB inst accesses
system.cpu.dstage2_mmu.stage2_tlb.hits              0                       # DTB hits
system.cpu.dstage2_mmu.stage2_tlb.misses            0                       # DTB misses
system.cpu.dstage2_mmu.stage2_tlb.accesses            0                       # DTB accesses
system.cpu.dtb.walker.pwrStateResidencyTicks::UNDEFINED  62224028000                       # Cumulative time (in ticks) in various power states
system.cpu.dtb.walker.walks                         0                       # Table walker walks requested
system.cpu.dtb.walker.walkRequestOrigin_Requested::Data            0                       # Table walker requests started/completed, data/inst
system.cpu.dtb.walker.walkRequestOrigin_Requested::Inst            0                       # Table walker requests started/completed, data/inst
system.cpu.dtb.walker.walkRequestOrigin_Requested::total            0                       # Table walker requests started/completed, data/inst
system.cpu.dtb.walker.walkRequestOrigin_Completed::Data            0                       # Table walker requests started/completed, data/inst
system.cpu.dtb.walker.walkRequestOrigin_Completed::Inst            0                       # Table walker requests started/completed, data/inst
system.cpu.dtb.walker.walkRequestOrigin_Completed::total            0                       # Table walker requests started/completed, data/inst
system.cpu.dtb.walker.walkRequestOrigin::total            0                       # Table walker requests started/completed, data/inst
system.cpu.dtb.inst_hits                            0                       # ITB inst hits
system.cpu.dtb.inst_misses                          0                       # ITB inst misses
system.cpu.dtb.read_hits                            0                       # DTB read hits
system.cpu.dtb.read_misses                          0                       # DTB read misses
system.cpu.dtb.write_hits                           0                       # DTB write hits
system.cpu.dtb.write_misses                         0                       # DTB write misses
system.cpu.dtb.flush_tlb                            0                       # Number of times complete TLB was flushed
system.cpu.dtb.flush_tlb_mva                        0                       # Number of times TLB was flushed by MVA
system.cpu.dtb.flush_tlb_mva_asid                   0                       # Number of times TLB was flushed by MVA & ASID
system.cpu.dtb.flush_tlb_asid                       0                       # Number of times TLB was flushed by ASID
system.cpu.dtb.flush_entries                        0                       # Number of entries that have been flushed from TLB
system.cpu.dtb.align_faults                         0                       # Number of TLB faults due to alignment restrictions
system.cpu.dtb.prefetch_faults                      0                       # Number of TLB faults due to prefetch
system.cpu.dtb.domain_faults                        0                       # Number of TLB faults due to domain restrictions
system.cpu.dtb.perms_faults                         0                       # Number of TLB faults due to permissions restrictions
system.cpu.dtb.read_accesses                        0                       # DTB read accesses
system.cpu.dtb.write_accesses                       0                       # DTB write accesses
system.cpu.dtb.inst_accesses                        0                       # ITB inst accesses
system.cpu.dtb.hits                                 0                       # DTB hits
system.cpu.dtb.misses                               0                       # DTB misses
system.cpu.dtb.accesses                             0                       # DTB accesses
system.cpu.istage2_mmu.stage2_tlb.walker.pwrStateResidencyTicks::UNDEFINED  62224028000                       # Cumulative time (in ticks) in various power states
system.cpu.istage2_mmu.stage2_tlb.walker.walks            0                       # Table walker walks requested
system.cpu.istage2_mmu.stage2_tlb.walker.walkRequestOrigin_Requested::Data            0                       # Table walker requests started/completed, data/inst
system.cpu.istage2_mmu.stage2_tlb.walker.walkRequestOrigin_Requested::Inst            0                       # Table walker requests started/completed, data/inst
system.cpu.istage2_mmu.stage2_tlb.walker.walkRequestOrigin_Requested::total            0                       # Table walker requests started/completed, data/inst
system.cpu.istage2_mmu.stage2_tlb.walker.walkRequestOrigin_Completed::Data            0                       # Table walker requests started/completed, data/inst
system.cpu.istage2_mmu.stage2_tlb.walker.walkRequestOrigin_Completed::Inst            0                       # Table walker requests started/completed, data/inst
system.cpu.istage2_mmu.stage2_tlb.walker.walkRequestOrigin_Completed::total            0                       # Table walker requests started/completed, data/inst
system.cpu.istage2_mmu.stage2_tlb.walker.walkRequestOrigin::total            0                       # Table walker requests started/completed, data/inst
system.cpu.istage2_mmu.stage2_tlb.inst_hits            0                       # ITB inst hits
system.cpu.istage2_mmu.stage2_tlb.inst_misses            0                       # ITB inst misses
system.cpu.istage2_mmu.stage2_tlb.read_hits            0                       # DTB read hits
system.cpu.istage2_mmu.stage2_tlb.read_misses            0                       # DTB read misses
system.cpu.istage2_mmu.stage2_tlb.write_hits            0                       # DTB write hits
system.cpu.istage2_mmu.stage2_tlb.write_misses            0                       # DTB write misses
system.cpu.istage2_mmu.stage2_tlb.flush_tlb            0                       # Number of times complete TLB was flushed
system.cpu.istage2_mmu.stage2_tlb.flush_tlb_mva            0                       # Number of times TLB was flushed by MVA
system.cpu.istage2_mmu.stage2_tlb.flush_tlb_mva_asid            0                       # Number of times TLB was flushed by MVA & ASID
system.cpu.istage2_mmu.stage2_tlb.flush_tlb_asid            0                       # Number of times TLB was flushed by ASID
system.cpu.istage2_mmu.stage2_tlb.flush_entries            0                       # Number of entries that have been flushed from TLB
system.cpu.istage2_mmu.stage2_tlb.align_faults            0                       # Number of TLB faults due to alignment restrictions
system.cpu.istage2_mmu.stage2_tlb.prefetch_faults            0                       # Number of TLB faults due to prefetch
system.cpu.istage2_mmu.stage2_tlb.domain_faults            0                       # Number of TLB faults due to domain restrictions
system.cpu.istage2_mmu.stage2_tlb.perms_faults            0                       # Number of TLB faults due to permissions restrictions
system.cpu.istage2_mmu.stage2_tlb.read_accesses            0                       # DTB read accesses
system.cpu.istage2_mmu.stage2_tlb.write_accesses            0                       # DTB write accesses
system.cpu.istage2_mmu.stage2_tlb.inst_accesses            0                       # ITB inst accesses
system.cpu.istage2_mmu.stage2_tlb.hits              0                       # DTB hits
system.cpu.istage2_mmu.stage2_tlb.misses            0                       # DTB misses
system.cpu.istage2_mmu.stage2_tlb.accesses            0                       # DTB accesses
system.cpu.itb.walker.pwrStateResidencyTicks::UNDEFINED  62224028000                       # Cumulative time (in ticks) in various power states
system.cpu.itb.walker.walks                         0                       # Table walker walks requested
system.cpu.itb.walker.walkRequestOrigin_Requested::Data            0                       # Table walker requests started/completed, data/inst
system.cpu.itb.walker.walkRequestOrigin_Requested::Inst            0                       # Table walker requests started/completed, data/inst
system.cpu.itb.walker.walkRequestOrigin_Requested::total            0                       # Table walker requests started/completed, data/inst
system.cpu.itb.walker.walkRequestOrigin_Completed::Data            0                       # Table walker requests started/completed, data/inst
system.cpu.itb.walker.walkRequestOrigin_Completed::Inst            0                       # Table walker requests started/completed, data/inst
system.cpu.itb.walker.walkRequestOrigin_Completed::total            0                       # Table walker requests started/completed, data/inst
system.cpu.itb.walker.walkRequestOrigin::total            0                       # Table walker requests started/completed, data/inst
system.cpu.itb.inst_hits                            0                       # ITB inst hits
system.cpu.itb.inst_misses                          0                       # ITB inst misses
system.cpu.itb.read_hits                            0                       # DTB read hits
system.cpu.itb.read_misses                          0                       # DTB read misses
system.cpu.itb.write_hits                           0                       # DTB write hits
system.cpu.itb.write_misses                         0                       # DTB write misses
system.cpu.itb.flush_tlb                            0                       # Number of times complete TLB was flushed
system.cpu.itb.flush_tlb_mva                        0                       # Number of times TLB was flushed by MVA
system.cpu.itb.flush_tlb_mva_asid                   0                       # Number of times TLB was flushed by MVA & ASID
system.cpu.itb.flush_tlb_asid                       0                       # Number of times TLB was flushed by ASID
system.cpu.itb.flush_entries                        0                       # Number of entries that have been flushed from TLB
system.cpu.itb.align_faults                         0                       # Number of TLB faults due to alignment restrictions
system.cpu.itb.prefetch_faults                      0                       # Number of TLB faults due to prefetch
system.cpu.itb.domain_faults                        0                       # Number of TLB faults due to domain restrictions
system.cpu.itb.perms_faults                         0                       # Number of TLB faults due to permissions restrictions
system.cpu.itb.read_accesses                        0                       # DTB read accesses
system.cpu.itb.write_accesses                       0                       # DTB write accesses
system.cpu.itb.inst_accesses                        0                       # ITB inst accesses
system.cpu.itb.hits                                 0                       # DTB hits
system.cpu.itb.misses                               0                       # DTB misses
system.cpu.itb.accesses                             0                       # DTB accesses
system.cpu.workload.numSyscalls                    28                       # Number of system calls
system.cpu.pwrStateResidencyTicks::ON     62224028000                       # Cumulative time (in ticks) in various power states
system.cpu.numCycles                        124448057                       # number of cpu cycles simulated
system.cpu.numWorkItemsStarted                      0                       # number of work items this cpu started
system.cpu.numWorkItemsCompleted                    0                       # number of work items this cpu completed
system.cpu.committedInsts                   107562807                       # Number of instructions committed
system.cpu.committedOps                     124448029                       # Number of ops (including micro ops) committed
system.cpu.num_int_alu_accesses             110930776                       # Number of integer alu accesses
system.cpu.num_fp_alu_accesses                     16                       # Number of float alu accesses
system.cpu.num_vec_alu_accesses                     0                       # Number of vector alu accesses
system.cpu.num_func_calls                     6902175                       # number of times a function call or return occured
system.cpu.num_conditional_control_insts     14582794                       # number of instructions that are conditional controls
system.cpu.num_int_insts                    110930776                       # number of integer instructions
system.cpu.num_fp_insts                            16                       # number of float instructions
system.cpu.num_vec_insts                            0                       # number of vector instructions
system.cpu.num_int_register_reads           171080342                       # number of times the integer registers were read
system.cpu.num_int_register_writes           80178246                       # number of times the integer registers were written
system.cpu.num_fp_register_reads                   16                       # number of times the floating registers were read
system.cpu.num_fp_register_writes                   0                       # number of times the floating registers were written
system.cpu.num_vec_register_reads                   0                       # number of times the vector registers were read
system.cpu.num_vec_register_writes                  0                       # number of times the vector registers were written
system.cpu.num_cc_register_reads            373368783                       # number of times the CC registers were read
system.cpu.num_cc_register_writes            68848066                       # number of times the CC registers were written
system.cpu.num_mem_refs                      24783450                       # number of memory refs
system.cpu.num_load_insts                    13281065                       # Number of load instructions
system.cpu.num_store_insts                   11502385                       # Number of store instructions
system.cpu.num_idle_cycles                          0                       # Number of idle cycles
system.cpu.num_busy_cycles                  124448057                       # Number of busy cycles
system.cpu.not_idle_fraction                        1                       # Percentage of non-idle cycles
system.cpu.idle_fraction                            0                       # Percentage of idle cycles
system.cpu.Branches                          20832359                       # Number of branches fetched
system.cpu.op_class::No_OpClass                     0      0.00%      0.00% # Class of executed instruction
system.cpu.op_class::IntAlu                  97539558     78.38%     78.38% # Class of executed instruction
system.cpu.op_class::IntMult                  2100437      1.69%     80.07% # Class of executed instruction
system.cpu.op_class::IntDiv                         0      0.00%     80.07% # Class of executed instruction
system.cpu.op_class::FloatAdd                       0      0.00%     80.07% # Class of executed instruction
system.cpu.op_class::FloatCmp                       0      0.00%     80.07% # Class of executed instruction
system.cpu.op_class::FloatCvt                       0      0.00%     80.07% # Class of executed instruction
system.cpu.op_class::FloatMult                      0      0.00%     80.07% # Class of executed instruction
system.cpu.op_class::FloatMultAcc                   0      0.00%     80.07% # Class of executed instruction
system.cpu.op_class::FloatDiv                       0      0.00%     80.07% # Class of executed instruction
system.cpu.op_class::FloatMisc                      0      0.00%     80.07% # Class of executed instruction
system.cpu.op_class::FloatSqrt                      0      0.00%     80.07% # Class of executed instruction
system.cpu.op_class::SimdAdd                        0      0.00%     80.07% # Class of executed instruction
system.cpu.op_class::SimdAddAcc                     0      0.00%     80.07% # Class of executed instruction
system.cpu.op_class::SimdAlu                        0      0.00%     80.07% # Class of executed instruction
system.cpu.op_class::SimdCmp                        0      0.00%     80.07% # Class of executed instruction
system.cpu.op_class::SimdCvt                        0      0.00%     80.07% # Class of executed instruction
system.cpu.op_class::SimdMisc                       0      0.00%     80.07% # Class of executed instruction
system.cpu.op_class::SimdMult                       0      0.00%     80.07% # Class of executed instruction
system.cpu.op_class::SimdMultAcc                    0      0.00%     80.07% # Class of executed instruction
system.cpu.op_class::SimdShift                      0      0.00%     80.07% # Class of executed instruction
system.cpu.op_class::SimdShiftAcc                   0      0.00%     80.07% # Class of executed instruction
system.cpu.op_class::SimdSqrt                       0      0.00%     80.07% # Class of executed instruction
system.cpu.op_class::SimdFloatAdd                   0      0.00%     80.07% # Class of executed instruction
system.cpu.op_class::SimdFloatAlu                   0      0.00%     80.07% # Class of executed instruction
system.cpu.op_class::SimdFloatCmp                   0      0.00%     80.07% # Class of executed instruction
system.cpu.op_class::SimdFloatCvt                   0      0.00%     80.07% # Class of executed instruction
system.cpu.op_class::SimdFloatDiv                   0      0.00%     80.07% # Class of executed instruction
system.cpu.op_class::SimdFloatMisc              24612      0.02%     80.09% # Class of executed instruction
system.cpu.op_class::SimdFloatMult                  0      0.00%     80.09% # Class of executed instruction
system.cpu.op_class::SimdFloatMultAcc               0      0.00%     80.09% # Class of executed instruction
system.cpu.op_class::SimdFloatSqrt                  0      0.00%     80.09% # Class of executed instruction
system.cpu.op_class::MemRead                 13281065     10.67%     90.76% # Class of executed instruction
system.cpu.op_class::MemWrite                11502369      9.24%    100.00% # Class of executed instruction
system.cpu.op_class::FloatMemRead                   0      0.00%    100.00% # Class of executed instruction
system.cpu.op_class::FloatMemWrite                 16      0.00%    100.00% # Class of executed instruction
system.cpu.op_class::IprAccess                      0      0.00%    100.00% # Class of executed instruction
system.cpu.op_class::InstPrefetch                   0      0.00%    100.00% # Class of executed instruction
system.cpu.op_class::total                  124448057                       # Class of executed instruction
system.cpu.dcache.tags.pwrStateResidencyTicks::UNDEFINED  62224028000                       # Cumulative time (in ticks) in various power states
system.cpu.dcache.tags.replacements            802424                       # number of replacements
system.cpu.dcache.tags.tagsinuse            31.999975                       # Cycle average of tags in use
system.cpu.dcache.tags.total_refs        265390120260                       # Total number of references to valid blocks.
system.cpu.dcache.tags.sampled_refs            802456                       # Sample count of references to valid blocks.
system.cpu.dcache.tags.avg_refs          330722.332763                       # Average number of references to valid blocks.
system.cpu.dcache.tags.warmup_cycle              1000                       # Cycle when the warmup percentage was hit.
system.cpu.dcache.tags.occ_blocks::cpu.data    31.999975                       # Average occupied blocks per requestor
system.cpu.dcache.tags.occ_percent::cpu.data     0.999999                       # Average percentage of cache occupancy
system.cpu.dcache.tags.occ_percent::total     0.999999                       # Average percentage of cache occupancy
system.cpu.dcache.tags.occ_task_id_blocks::1024           32                       # Occupied blocks per task id
system.cpu.dcache.tags.age_task_id_blocks_1024::0           31                       # Occupied blocks per task id
system.cpu.dcache.tags.age_task_id_blocks_1024::2            1                       # Occupied blocks per task id
system.cpu.dcache.tags.occ_task_id_percent::1024            1                       # Percentage of cache occupancy per task id
system.cpu.dcache.tags.tag_accesses          94371888                       # Number of tag accesses
system.cpu.dcache.tags.data_accesses         94371888                       # Number of data accesses
system.cpu.dcache.pwrStateResidencyTicks::UNDEFINED  62224028000                       # Cumulative time (in ticks) in various power states
system.cpu.dcache.ReadReq_hits::cpu.data     11615862                       # number of ReadReq hits
system.cpu.dcache.ReadReq_hits::total        11615862                       # number of ReadReq hits
system.cpu.dcache.WriteReq_hits::cpu.data     10875606                       # number of WriteReq hits
system.cpu.dcache.WriteReq_hits::total       10875606                       # number of WriteReq hits
system.cpu.dcache.LoadLockedReq_hits::cpu.data        49217                       # number of LoadLockedReq hits
system.cpu.dcache.LoadLockedReq_hits::total        49217                       # number of LoadLockedReq hits
system.cpu.dcache.StoreCondReq_hits::cpu.data        49217                       # number of StoreCondReq hits
system.cpu.dcache.StoreCondReq_hits::total        49217                       # number of StoreCondReq hits
system.cpu.dcache.demand_hits::cpu.data      22491468                       # number of demand (read+write) hits
system.cpu.dcache.demand_hits::total         22491468                       # number of demand (read+write) hits
system.cpu.dcache.overall_hits::cpu.data     22491468                       # number of overall hits
system.cpu.dcache.overall_hits::total        22491468                       # number of overall hits
system.cpu.dcache.ReadReq_misses::cpu.data       625800                       # number of ReadReq misses
system.cpu.dcache.ReadReq_misses::total        625800                       # number of ReadReq misses
system.cpu.dcache.WriteReq_misses::cpu.data       176656                       # number of WriteReq misses
system.cpu.dcache.WriteReq_misses::total       176656                       # number of WriteReq misses
system.cpu.dcache.demand_misses::cpu.data       802456                       # number of demand (read+write) misses
system.cpu.dcache.demand_misses::total         802456                       # number of demand (read+write) misses
system.cpu.dcache.overall_misses::cpu.data       802456                       # number of overall misses
system.cpu.dcache.overall_misses::total        802456                       # number of overall misses
system.cpu.dcache.ReadReq_accesses::cpu.data     12241662                       # number of ReadReq accesses(hits+misses)
system.cpu.dcache.ReadReq_accesses::total     12241662                       # number of ReadReq accesses(hits+misses)
system.cpu.dcache.WriteReq_accesses::cpu.data     11052262                       # number of WriteReq accesses(hits+misses)
system.cpu.dcache.WriteReq_accesses::total     11052262                       # number of WriteReq accesses(hits+misses)
system.cpu.dcache.LoadLockedReq_accesses::cpu.data        49217                       # number of LoadLockedReq accesses(hits+misses)
system.cpu.dcache.LoadLockedReq_accesses::total        49217                       # number of LoadLockedReq accesses(hits+misses)
system.cpu.dcache.StoreCondReq_accesses::cpu.data        49217                       # number of StoreCondReq accesses(hits+misses)
system.cpu.dcache.StoreCondReq_accesses::total        49217                       # number of StoreCondReq accesses(hits+misses)
system.cpu.dcache.demand_accesses::cpu.data     23293924                       # number of demand (read+write) accesses
system.cpu.dcache.demand_accesses::total     23293924                       # number of demand (read+write) accesses
system.cpu.dcache.overall_accesses::cpu.data     23293924                       # number of overall (read+write) accesses
system.cpu.dcache.overall_accesses::total     23293924                       # number of overall (read+write) accesses
system.cpu.dcache.ReadReq_miss_rate::cpu.data     0.051121                       # miss rate for ReadReq accesses
system.cpu.dcache.ReadReq_miss_rate::total     0.051121                       # miss rate for ReadReq accesses
system.cpu.dcache.WriteReq_miss_rate::cpu.data     0.015984                       # miss rate for WriteReq accesses
system.cpu.dcache.WriteReq_miss_rate::total     0.015984                       # miss rate for WriteReq accesses
system.cpu.dcache.demand_miss_rate::cpu.data     0.034449                       # miss rate for demand accesses
system.cpu.dcache.demand_miss_rate::total     0.034449                       # miss rate for demand accesses
system.cpu.dcache.overall_miss_rate::cpu.data     0.034449                       # miss rate for overall accesses
system.cpu.dcache.overall_miss_rate::total     0.034449                       # miss rate for overall accesses
system.cpu.dcache.blocked_cycles::no_mshrs            0                       # number of cycles access was blocked
system.cpu.dcache.blocked_cycles::no_targets            0                       # number of cycles access was blocked
system.cpu.dcache.blocked::no_mshrs                 0                       # number of cycles access was blocked
system.cpu.dcache.blocked::no_targets               0                       # number of cycles access was blocked
system.cpu.dcache.avg_blocked_cycles::no_mshrs          nan                       # average number of cycles each access was blocked
system.cpu.dcache.avg_blocked_cycles::no_targets          nan                       # average number of cycles each access was blocked
system.cpu.dcache.writebacks::writebacks       337183                       # number of writebacks
system.cpu.dcache.writebacks::total            337183                       # number of writebacks
system.cpu.icache.tags.pwrStateResidencyTicks::UNDEFINED  62224028000                       # Cumulative time (in ticks) in various power states
system.cpu.icache.tags.replacements           7046920                       # number of replacements
system.cpu.icache.tags.tagsinuse            63.999553                       # Cycle average of tags in use
system.cpu.icache.tags.total_refs        7416752751893                       # Total number of references to valid blocks.
system.cpu.icache.tags.sampled_refs           7046984                       # Sample count of references to valid blocks.
system.cpu.icache.tags.avg_refs          1052471.915914                       # Average number of references to valid blocks.
system.cpu.icache.tags.warmup_cycle                 0                       # Cycle when the warmup percentage was hit.
system.cpu.icache.tags.occ_blocks::cpu.inst    63.999553                       # Average occupied blocks per requestor
system.cpu.icache.tags.occ_percent::cpu.inst     0.999993                       # Average percentage of cache occupancy
system.cpu.icache.tags.occ_percent::total     0.999993                       # Average percentage of cache occupancy
system.cpu.icache.tags.occ_task_id_blocks::1024           64                       # Occupied blocks per task id
system.cpu.icache.tags.age_task_id_blocks_1024::0           63                       # Occupied blocks per task id
system.cpu.icache.tags.age_task_id_blocks_1024::4            1                       # Occupied blocks per task id
system.cpu.icache.tags.occ_task_id_percent::1024            1                       # Percentage of cache occupancy per task id
system.cpu.icache.tags.tag_accesses         114609819                       # Number of tag accesses
system.cpu.icache.tags.data_accesses        114609819                       # Number of data accesses
system.cpu.icache.pwrStateResidencyTicks::UNDEFINED  62224028000                       # Cumulative time (in ticks) in various power states
system.cpu.icache.ReadReq_hits::cpu.inst    100515851                       # number of ReadReq hits
system.cpu.icache.ReadReq_hits::total       100515851                       # number of ReadReq hits
system.cpu.icache.demand_hits::cpu.inst     100515851                       # number of demand (read+write) hits
system.cpu.icache.demand_hits::total        100515851                       # number of demand (read+write) hits
system.cpu.icache.overall_hits::cpu.inst    100515851                       # number of overall hits
system.cpu.icache.overall_hits::total       100515851                       # number of overall hits
system.cpu.icache.ReadReq_misses::cpu.inst      7046984                       # number of ReadReq misses
system.cpu.icache.ReadReq_misses::total       7046984                       # number of ReadReq misses
system.cpu.icache.demand_misses::cpu.inst      7046984                       # number of demand (read+write) misses
system.cpu.icache.demand_misses::total        7046984                       # number of demand (read+write) misses
system.cpu.icache.overall_misses::cpu.inst      7046984                       # number of overall misses
system.cpu.icache.overall_misses::total       7046984                       # number of overall misses
system.cpu.icache.ReadReq_accesses::cpu.inst    107562835                       # number of ReadReq accesses(hits+misses)
system.cpu.icache.ReadReq_accesses::total    107562835                       # number of ReadReq accesses(hits+misses)
system.cpu.icache.demand_accesses::cpu.inst    107562835                       # number of demand (read+write) accesses
system.cpu.icache.demand_accesses::total    107562835                       # number of demand (read+write) accesses
system.cpu.icache.overall_accesses::cpu.inst    107562835                       # number of overall (read+write) accesses
system.cpu.icache.overall_accesses::total    107562835                       # number of overall (read+write) accesses
system.cpu.icache.ReadReq_miss_rate::cpu.inst     0.065515                       # miss rate for ReadReq accesses
system.cpu.icache.ReadReq_miss_rate::total     0.065515                       # miss rate for ReadReq accesses
system.cpu.icache.demand_miss_rate::cpu.inst     0.065515                       # miss rate for demand accesses
system.cpu.icache.demand_miss_rate::total     0.065515                       # miss rate for demand accesses
system.cpu.icache.overall_miss_rate::cpu.inst     0.065515                       # miss rate for overall accesses
system.cpu.icache.overall_miss_rate::total     0.065515                       # miss rate for overall accesses
system.cpu.icache.blocked_cycles::no_mshrs            0                       # number of cycles access was blocked
system.cpu.icache.blocked_cycles::no_targets            0                       # number of cycles access was blocked
system.cpu.icache.blocked::no_mshrs                 0                       # number of cycles access was blocked
system.cpu.icache.blocked::no_targets               0                       # number of cycles access was blocked
system.cpu.icache.avg_blocked_cycles::no_mshrs          nan                       # average number of cycles each access was blocked
system.cpu.icache.avg_blocked_cycles::no_targets          nan                       # average number of cycles each access was blocked
system.cpu.icache.writebacks::writebacks      7046920                       # number of writebacks
system.cpu.icache.writebacks::total           7046920                       # number of writebacks
system.l2.tags.pwrStateResidencyTicks::UNDEFINED  62224028000                       # Cumulative time (in ticks) in various power states
system.l2.tags.replacements                     43267                       # number of replacements
system.l2.tags.tagsinuse                   511.986135                       # Cycle average of tags in use
system.l2.tags.total_refs                   377827323                       # Total number of references to valid blocks.
system.l2.tags.sampled_refs                     43779                       # Sample count of references to valid blocks.
system.l2.tags.avg_refs                   8630.332420                       # Average number of references to valid blocks.
system.l2.tags.warmup_cycle                         0                       # Cycle when the warmup percentage was hit.
system.l2.tags.occ_blocks::writebacks       31.195388                       # Average occupied blocks per requestor
system.l2.tags.occ_blocks::cpu.inst        241.183836                       # Average occupied blocks per requestor
system.l2.tags.occ_blocks::cpu.data        239.606912                       # Average occupied blocks per requestor
system.l2.tags.occ_percent::writebacks       0.060928                       # Average percentage of cache occupancy
system.l2.tags.occ_percent::cpu.inst         0.471062                       # Average percentage of cache occupancy
system.l2.tags.occ_percent::cpu.data         0.467982                       # Average percentage of cache occupancy
system.l2.tags.occ_percent::total            0.999973                       # Average percentage of cache occupancy
system.l2.tags.occ_task_id_blocks::1024           512                       # Occupied blocks per task id
system.l2.tags.age_task_id_blocks_1024::0          142                       # Occupied blocks per task id
system.l2.tags.age_task_id_blocks_1024::1           11                       # Occupied blocks per task id
system.l2.tags.age_task_id_blocks_1024::2           70                       # Occupied blocks per task id
system.l2.tags.age_task_id_blocks_1024::3           11                       # Occupied blocks per task id
system.l2.tags.age_task_id_blocks_1024::4          278                       # Occupied blocks per task id
system.l2.tags.occ_task_id_percent::1024            1                       # Percentage of cache occupancy per task id
system.l2.tags.tag_accesses                 250974515                       # Number of tag accesses
system.l2.tags.data_accesses                250974515                       # Number of data accesses
system.l2.pwrStateResidencyTicks::UNDEFINED  62224028000                       # Cumulative time (in ticks) in various power states
system.l2.WritebackDirty_hits::writebacks       337183                       # number of WritebackDirty hits
system.l2.WritebackDirty_hits::total           337183                       # number of WritebackDirty hits
system.l2.WritebackClean_hits::writebacks      7036384                       # number of WritebackClean hits
system.l2.WritebackClean_hits::total          7036384                       # number of WritebackClean hits
system.l2.ReadExReq_hits::cpu.data             163733                       # number of ReadExReq hits
system.l2.ReadExReq_hits::total                163733                       # number of ReadExReq hits
system.l2.ReadCleanReq_hits::cpu.inst         7037790                       # number of ReadCleanReq hits
system.l2.ReadCleanReq_hits::total            7037790                       # number of ReadCleanReq hits
system.l2.ReadSharedReq_hits::cpu.data         608642                       # number of ReadSharedReq hits
system.l2.ReadSharedReq_hits::total            608642                       # number of ReadSharedReq hits
system.l2.demand_hits::cpu.inst               7037790                       # number of demand (read+write) hits
system.l2.demand_hits::cpu.data                772375                       # number of demand (read+write) hits
system.l2.demand_hits::total                  7810165                       # number of demand (read+write) hits
system.l2.overall_hits::cpu.inst              7037790                       # number of overall hits
system.l2.overall_hits::cpu.data               772375                       # number of overall hits
system.l2.overall_hits::total                 7810165                       # number of overall hits
system.l2.ReadExReq_misses::cpu.data            12923                       # number of ReadExReq misses
system.l2.ReadExReq_misses::total               12923                       # number of ReadExReq misses
system.l2.ReadCleanReq_misses::cpu.inst          9194                       # number of ReadCleanReq misses
system.l2.ReadCleanReq_misses::total             9194                       # number of ReadCleanReq misses
system.l2.ReadSharedReq_misses::cpu.data        17158                       # number of ReadSharedReq misses
system.l2.ReadSharedReq_misses::total           17158                       # number of ReadSharedReq misses
system.l2.demand_misses::cpu.inst                9194                       # number of demand (read+write) misses
system.l2.demand_misses::cpu.data               30081                       # number of demand (read+write) misses
system.l2.demand_misses::total                  39275                       # number of demand (read+write) misses
system.l2.overall_misses::cpu.inst               9194                       # number of overall misses
system.l2.overall_misses::cpu.data              30081                       # number of overall misses
system.l2.overall_misses::total                 39275                       # number of overall misses
system.l2.WritebackDirty_accesses::writebacks       337183                       # number of WritebackDirty accesses(hits+misses)
system.l2.WritebackDirty_accesses::total       337183                       # number of WritebackDirty accesses(hits+misses)
system.l2.WritebackClean_accesses::writebacks      7036384                       # number of WritebackClean accesses(hits+misses)
system.l2.WritebackClean_accesses::total      7036384                       # number of WritebackClean accesses(hits+misses)
system.l2.ReadExReq_accesses::cpu.data         176656                       # number of ReadExReq accesses(hits+misses)
system.l2.ReadExReq_accesses::total            176656                       # number of ReadExReq accesses(hits+misses)
system.l2.ReadCleanReq_accesses::cpu.inst      7046984                       # number of ReadCleanReq accesses(hits+misses)
system.l2.ReadCleanReq_accesses::total        7046984                       # number of ReadCleanReq accesses(hits+misses)
system.l2.ReadSharedReq_accesses::cpu.data       625800                       # number of ReadSharedReq accesses(hits+misses)
system.l2.ReadSharedReq_accesses::total        625800                       # number of ReadSharedReq accesses(hits+misses)
system.l2.demand_accesses::cpu.inst           7046984                       # number of demand (read+write) accesses
system.l2.demand_accesses::cpu.data            802456                       # number of demand (read+write) accesses
system.l2.demand_accesses::total              7849440                       # number of demand (read+write) accesses
system.l2.overall_accesses::cpu.inst          7046984                       # number of overall (read+write) accesses
system.l2.overall_accesses::cpu.data           802456                       # number of overall (read+write) accesses
system.l2.overall_accesses::total             7849440                       # number of overall (read+write) accesses
system.l2.ReadExReq_miss_rate::cpu.data      0.073153                       # miss rate for ReadExReq accesses
system.l2.ReadExReq_miss_rate::total         0.073153                       # miss rate for ReadExReq accesses
system.l2.ReadCleanReq_miss_rate::cpu.inst     0.001305                       # miss rate for ReadCleanReq accesses
system.l2.ReadCleanReq_miss_rate::total      0.001305                       # miss rate for ReadCleanReq accesses
system.l2.ReadSharedReq_miss_rate::cpu.data     0.027418                       # miss rate for ReadSharedReq accesses
system.l2.ReadSharedReq_miss_rate::total     0.027418                       # miss rate for ReadSharedReq accesses
system.l2.demand_miss_rate::cpu.inst         0.001305                       # miss rate for demand accesses
system.l2.demand_miss_rate::cpu.data         0.037486                       # miss rate for demand accesses
system.l2.demand_miss_rate::total            0.005004                       # miss rate for demand accesses
system.l2.overall_miss_rate::cpu.inst        0.001305                       # miss rate for overall accesses
system.l2.overall_miss_rate::cpu.data        0.037486                       # miss rate for overall accesses
system.l2.overall_miss_rate::total           0.005004                       # miss rate for overall accesses
system.l2.blocked_cycles::no_mshrs                  0                       # number of cycles access was blocked
system.l2.blocked_cycles::no_targets                0                       # number of cycles access was blocked
system.l2.blocked::no_mshrs                         0                       # number of cycles access was blocked
system.l2.blocked::no_targets                       0                       # number of cycles access was blocked
system.l2.avg_blocked_cycles::no_mshrs            nan                       # average number of cycles each access was blocked
system.l2.avg_blocked_cycles::no_targets          nan                       # average number of cycles each access was blocked
system.l2.writebacks::writebacks                25170                       # number of writebacks
system.l2.writebacks::total                     25170                       # number of writebacks
system.membus.snoop_filter.tot_requests         78020                       # Total number of requests made to the snoop filter.
system.membus.snoop_filter.hit_single_requests        38749                       # Number of requests hitting in the snoop filter with a single holder of the requested data.
system.membus.snoop_filter.hit_multi_requests            0                       # Number of requests hitting in the snoop filter with multiple (>1) holders of the requested data.
system.membus.snoop_filter.tot_snoops               0                       # Total number of snoops made to the snoop filter.
system.membus.snoop_filter.hit_single_snoops            0                       # Number of snoops hitting in the snoop filter with a single holder of the requested data.
system.membus.snoop_filter.hit_multi_snoops            0                       # Number of snoops hitting in the snoop filter with multiple (>1) holders of the requested data.
system.membus.pwrStateResidencyTicks::UNDEFINED  62224028000                       # Cumulative time (in ticks) in various power states
system.membus.trans_dist::ReadResp              26352                       # Transaction distribution
system.membus.trans_dist::WritebackDirty        25170                       # Transaction distribution
system.membus.trans_dist::CleanEvict            13575                       # Transaction distribution
system.membus.trans_dist::ReadExReq             12923                       # Transaction distribution
system.membus.trans_dist::ReadExResp            12923                       # Transaction distribution
system.membus.trans_dist::ReadSharedReq         26352                       # Transaction distribution
system.membus.pkt_count_system.l2.mem_side::system.mem_ctrls.port       117295                       # Packet count per connected master and slave (bytes)
system.membus.pkt_count::total                 117295                       # Packet count per connected master and slave (bytes)
system.membus.pkt_size_system.l2.mem_side::system.mem_ctrls.port      2062240                       # Cumulative packet size per connected master and slave (bytes)
system.membus.pkt_size::total                 2062240                       # Cumulative packet size per connected master and slave (bytes)
system.membus.snoops                                0                       # Total snoops (count)
system.membus.snoopTraffic                          0                       # Total snoop traffic (bytes)
system.membus.snoop_fanout::samples             39275                       # Request fanout histogram
system.membus.snoop_fanout::mean                    0                       # Request fanout histogram
system.membus.snoop_fanout::stdev                   0                       # Request fanout histogram
system.membus.snoop_fanout::underflows              0      0.00%      0.00% # Request fanout histogram
system.membus.snoop_fanout::0                   39275    100.00%    100.00% # Request fanout histogram
system.membus.snoop_fanout::1                       0      0.00%    100.00% # Request fanout histogram
system.membus.snoop_fanout::overflows               0      0.00%    100.00% # Request fanout histogram
system.membus.snoop_fanout::min_value               0                       # Request fanout histogram
system.membus.snoop_fanout::max_value               0                       # Request fanout histogram
system.membus.snoop_fanout::total               39275                       # Request fanout histogram
system.tol2bus.snoop_filter.tot_requests     15698784                       # Total number of requests made to the snoop filter.
system.tol2bus.snoop_filter.hit_single_requests      7849345                       # Number of requests hitting in the snoop filter with a single holder of the requested data.
system.tol2bus.snoop_filter.hit_multi_requests        15613                       # Number of requests hitting in the snoop filter with multiple (>1) holders of the requested data.
system.tol2bus.snoop_filter.tot_snoops           4995                       # Total number of snoops made to the snoop filter.
system.tol2bus.snoop_filter.hit_single_snoops         4995                       # Number of snoops hitting in the snoop filter with a single holder of the requested data.
system.tol2bus.snoop_filter.hit_multi_snoops            0                       # Number of snoops hitting in the snoop filter with multiple (>1) holders of the requested data.
system.tol2bus.pwrStateResidencyTicks::UNDEFINED  62224028000                       # Cumulative time (in ticks) in various power states
system.tol2bus.trans_dist::ReadResp           7672784                       # Transaction distribution
system.tol2bus.trans_dist::WritebackDirty       337183                       # Transaction distribution
system.tol2bus.trans_dist::WritebackClean      7046920                       # Transaction distribution
system.tol2bus.trans_dist::CleanEvict          465241                       # Transaction distribution
system.tol2bus.trans_dist::ReadExReq           176656                       # Transaction distribution
system.tol2bus.trans_dist::ReadExResp          176656                       # Transaction distribution
system.tol2bus.trans_dist::ReadCleanReq       7046984                       # Transaction distribution
system.tol2bus.trans_dist::ReadSharedReq       625800                       # Transaction distribution
system.tol2bus.pkt_count_system.cpu.icache.mem_side::system.l2.cpu_side     21140888                       # Packet count per connected master and slave (bytes)
system.tol2bus.pkt_count_system.cpu.dcache.mem_side::system.l2.cpu_side      2407336                       # Packet count per connected master and slave (bytes)
system.tol2bus.pkt_count::total              23548224                       # Packet count per connected master and slave (bytes)
system.tol2bus.pkt_size_system.cpu.icache.mem_side::system.l2.cpu_side    451004928                       # Cumulative packet size per connected master and slave (bytes)
system.tol2bus.pkt_size_system.cpu.dcache.mem_side::system.l2.cpu_side     36468448                       # Cumulative packet size per connected master and slave (bytes)
system.tol2bus.pkt_size::total              487473376                       # Cumulative packet size per connected master and slave (bytes)
system.tol2bus.snoops                           43267                       # Total snoops (count)
system.tol2bus.snoopTraffic                    805440                       # Total snoop traffic (bytes)
system.tol2bus.snoop_fanout::samples          7892707                       # Request fanout histogram
system.tol2bus.snoop_fanout::mean            0.002611                       # Request fanout histogram
system.tol2bus.snoop_fanout::stdev           0.051033                       # Request fanout histogram
system.tol2bus.snoop_fanout::underflows             0      0.00%      0.00% # Request fanout histogram
system.tol2bus.snoop_fanout::0                7872098     99.74%     99.74% # Request fanout histogram
system.tol2bus.snoop_fanout::1                  20609      0.26%    100.00% # Request fanout histogram
system.tol2bus.snoop_fanout::2                      0      0.00%    100.00% # Request fanout histogram
system.tol2bus.snoop_fanout::overflows              0      0.00%    100.00% # Request fanout histogram
system.tol2bus.snoop_fanout::min_value              0                       # Request fanout histogram
system.tol2bus.snoop_fanout::max_value              1                       # Request fanout histogram
system.tol2bus.snoop_fanout::total            7892707                       # Request fanout histogram

---------- End Simulation Statistics   ----------
